<?xml version="1.0" encoding="UTF-8"?>

<!-- generated on 2026-04-21T14:20:12.532988+01:00 by Eclipse SUMO netedit 1.25.0
<neteditConfiguration xmlns:xsi="http://www.w3.org/2001/XMLSchema-instance" xsi:noNamespaceSchemaLocation="http://sumo.dlr.de/xsd/neteditConfiguration.xsd">

    <input>
        <sumocfg-file value="C:\Users\mogul\OneDrive\Masaüstü\mt_emre\digital_twin\simulation\landau_corridor.sumocfg"/>
        <additional-files value="C:\Users\mogul\OneDrive\Masaüstü\mt_emre\digital_twin\simulation\Corridor_detectors_e1.add.xml"/>
        <sumo-net-file value="C:\Users\mogul\OneDrive\Masaüstü\mt_emre\digital_twin\simulation\landau_corridor.net.xml"/>
    </input>

    <output>
        <output-file value="C:\Users\mogul\OneDrive\Masaüstü\mt_emre\digital_twin\simulation\landau_corridor.net.xml"/>
        <output.street-names value="true"/>
    </output>

    <processing>
        <geometry.min-radius.fix.railways value="false"/>
        <geometry.avoid-overlap value="false"/>
        <geometry.max-grade.fix value="false"/>
        <offset.disable-normalization value="true"/>
        <lefthand value="0"/>
    </processing>

    <junctions>
        <no-turnarounds value="true"/>
        <junctions.corner-detail value="5"/>
        <junctions.limit-turn-speed value="5.50"/>
        <rectangular-lane-cut value="0"/>
    </junctions>

    <pedestrian>
        <walkingareas value="0"/>
    </pedestrian>

    <netedit>
        <ignore.additionalelements value="0"/>
        <ignore.routeelements value="0"/>
    </netedit>

</neteditConfiguration>
-->

<net version="1.20" junctionCornerDetail="5" limitTurnSpeed="5.50" avoidOverlap="0" xmlns:xsi="http://www.w3.org/2001/XMLSchema-instance" xsi:noNamespaceSchemaLocation="http://sumo.dlr.de/xsd/net_file.xsd">

    <location netOffset="-432669.62,-5448263.76" convBoundary="2625.15,897.88,3945.05,1390.49" origBoundary="8.075636,49.183827,8.153612,49.219655" projParameter="+proj=utm +zone=32 +ellps=WGS84 +datum=WGS84 +units=m +no_defs"/>

    <type id="highway.path" priority="1" numLanes="1" speed="5.56" allow="pedestrian bicycle" oneway="0" width="2.00"/>
    <type id="highway.residential" priority="3" numLanes="1" speed="13.89" disallow="tram rail_urban rail rail_electric rail_fast ship container cable_car subway aircraft wheelchair scooter drone" oneway="0"/>
    <type id="highway.secondary" priority="11" numLanes="1" speed="27.78" disallow="tram rail_urban rail rail_electric rail_fast ship container cable_car subway aircraft wheelchair scooter drone" oneway="0"/>
    <type id="highway.secondary_link" priority="6" numLanes="1" speed="22.22" disallow="tram rail_urban rail rail_electric rail_fast ship container cable_car subway aircraft wheelchair scooter drone" oneway="0"/>
    <type id="highway.service" priority="1" numLanes="1" speed="5.56" allow="pedestrian delivery bicycle" oneway="0"/>
    <type id="highway.tertiary" priority="10" numLanes="1" speed="22.22" disallow="tram rail_urban rail rail_electric rail_fast ship container cable_car subway aircraft wheelchair scooter drone" oneway="0"/>
    <type id="highway.unclassified" priority="4" numLanes="1" speed="13.89" disallow="tram rail_urban rail rail_electric rail_fast ship container cable_car subway aircraft wheelchair scooter drone" oneway="0"/>

    <edge id=":10899688424_0" function="internal">
        <lane id=":10899688424_0_0" index="0" allow="pedestrian bicycle" speed="5.56" length="5.50" width="2.00" shape="2914.07,1057.22 2913.90,1058.72 2913.25,1059.61 2912.34,1060.45 2911.38,1061.79"/>
    </edge>
    <edge id=":10899688424_1" function="internal">
        <lane id=":10899688424_1_0" index="0" allow="pedestrian bicycle" speed="5.56" length="3.74" width="2.00" shape="2909.60,1060.87 2910.17,1059.91 2910.60,1059.24 2910.85,1058.53 2910.88,1057.46"/>
    </edge>
    <edge id=":11274621607_0" function="internal">
        <lane id=":11274621607_0_0" index="0" disallow="tram rail_urban rail rail_electric rail_fast ship container cable_car subway aircraft wheelchair scooter drone" speed="13.89" length="7.00" shape="2894.40,1100.40 2888.16,1097.23"/>
        <lane id=":11274621607_0_1" index="1" disallow="tram rail_urban rail rail_electric rail_fast ship container cable_car subway aircraft wheelchair scooter drone" speed="13.89" length="7.00" shape="2895.85,1097.54 2889.61,1094.38"/>
    </edge>
    <edge id=":11274621607_2" function="internal">
        <lane id=":11274621607_2_0" index="0" allow="pedestrian bicycle" speed="8.08" length="1.93" width="2.00" shape="2895.85,1097.54 2894.58,1096.09"/>
    </edge>
    <edge id=":11274621607_9" function="internal">
        <lane id=":11274621607_9_0" index="0" allow="pedestrian bicycle" speed="8.08" length="12.61" width="2.00" shape="2894.58,1096.09 2894.44,1095.93 2894.26,1093.17 2895.31,1089.25 2897.61,1084.17"/>
    </edge>
    <edge id=":11274621607_3" function="internal">
        <lane id=":11274621607_3_0" index="0" allow="pedestrian bicycle" speed="4.66" length="4.53" width="2.00" shape="2899.38,1085.09 2898.90,1086.37 2898.88,1087.44 2899.31,1088.32 2900.20,1088.99"/>
    </edge>
    <edge id=":11274621607_4" function="internal">
        <lane id=":11274621607_4_0" index="0" allow="pedestrian bicycle" speed="7.99" length="14.49" width="2.00" shape="2899.38,1085.09 2896.59,1089.91 2894.03,1093.06 2891.71,1094.55 2889.61,1094.38"/>
    </edge>
    <edge id=":11274621607_5" function="internal">
        <lane id=":11274621607_5_0" index="0" allow="pedestrian bicycle" speed="4.85" length="4.54" width="2.00" shape="2893.96,1085.82 2895.02,1086.14 2895.98,1085.97 2896.84,1085.32 2897.61,1084.17"/>
    </edge>
    <edge id=":11274621607_6" function="internal">
        <lane id=":11274621607_6_0" index="0" disallow="tram rail_urban rail rail_electric rail_fast ship container cable_car subway aircraft wheelchair scooter drone" speed="13.89" length="7.00" shape="2893.96,1085.82 2900.20,1088.99"/>
        <lane id=":11274621607_6_1" index="1" disallow="tram rail_urban rail rail_electric rail_fast ship container cable_car subway aircraft wheelchair scooter drone" speed="13.89" length="7.00" shape="2892.51,1088.67 2898.75,1091.84"/>
        <lane id=":11274621607_6_2" index="2" disallow="tram rail_urban rail rail_electric rail_fast ship container cable_car subway aircraft wheelchair scooter drone" speed="13.89" length="7.00" shape="2891.06,1091.52 2897.30,1094.69"/>
    </edge>
    <edge id=":11347179278_0" function="internal">
        <lane id=":11347179278_0_0" index="0" disallow="tram rail_urban rail rail_electric rail_fast ship container cable_car subway aircraft wheelchair scooter drone" speed="13.89" length="9.41" shape="2977.11,1146.25 2968.72,1141.98"/>
        <lane id=":11347179278_0_1" index="1" disallow="tram rail_urban rail rail_electric rail_fast ship container cable_car subway aircraft wheelchair scooter drone" speed="13.89" length="9.41" shape="2978.56,1143.40 2970.18,1139.13"/>
        <lane id=":11347179278_0_2" index="2" disallow="tram rail_urban rail rail_electric rail_fast ship container cable_car subway aircraft wheelchair scooter drone" speed="13.89" length="9.41" shape="2980.01,1140.55 2971.63,1136.28"/>
    </edge>
    <edge id=":11347179278_3" function="internal">
        <lane id=":11347179278_3_0" index="0" allow="pedestrian delivery bicycle" speed="7.66" length="2.80" shape="2980.01,1140.55 2977.84,1138.78"/>
    </edge>
    <edge id=":11347179278_10" function="internal">
        <lane id=":11347179278_10_0" index="0" allow="pedestrian delivery bicycle" speed="7.66" length="10.04" shape="2977.84,1138.78 2976.90,1136.30 2977.19,1133.11 2978.71,1129.21"/>
    </edge>
    <edge id=":11347179278_4" function="internal">
        <lane id=":11347179278_4_0" index="0" allow="pedestrian delivery bicycle" speed="5.06" length="5.03" shape="2981.57,1130.64 2981.13,1131.95 2981.20,1133.09 2981.80,1134.06 2982.92,1134.85"/>
    </edge>
    <edge id=":11347179278_5" function="internal">
        <lane id=":11347179278_5_0" index="0" allow="pedestrian delivery bicycle" speed="8.37" length="15.73" shape="2981.57,1130.64 2978.72,1135.44 2975.87,1138.46 2973.02,1139.68 2970.18,1139.13"/>
        <lane id=":11347179278_5_1" index="1" allow="pedestrian delivery bicycle" speed="7.63" length="12.90" shape="2981.57,1130.64 2979.35,1134.19 2976.95,1136.31 2974.38,1137.01 2971.63,1136.28"/>
    </edge>
    <edge id=":11347179278_7" function="internal">
        <lane id=":11347179278_7_0" index="0" allow="pedestrian delivery bicycle" speed="5.03" length="5.01" shape="2974.54,1130.58 2975.84,1131.02 2976.97,1130.94 2977.92,1130.34 2978.71,1129.21"/>
    </edge>
    <edge id=":11347179278_8" function="internal">
        <lane id=":11347179278_8_0" index="0" disallow="tram rail_urban rail rail_electric rail_fast ship container cable_car subway aircraft wheelchair scooter drone" speed="13.89" length="9.40" shape="2974.54,1130.58 2982.92,1134.85"/>
        <lane id=":11347179278_8_1" index="1" disallow="tram rail_urban rail rail_electric rail_fast ship container cable_car subway aircraft wheelchair scooter drone" speed="13.89" length="9.40" shape="2973.09,1133.43 2981.46,1137.70"/>
    </edge>
    <edge id=":11347179280_0" function="internal">
        <lane id=":11347179280_0_0" index="0" disallow="tram rail_urban rail rail_electric rail_fast ship container cable_car subway aircraft wheelchair scooter drone" speed="13.89" length="0.28" shape="2761.47,1016.01 2761.28,1015.83"/>
        <lane id=":11347179280_0_1" index="1" disallow="tram rail_urban rail rail_electric rail_fast ship container cable_car subway aircraft wheelchair scooter drone" speed="13.89" length="0.28" shape="2763.65,1013.67 2763.44,1013.47"/>
    </edge>
    <edge id=":11347179280_2" function="internal">
        <lane id=":11347179280_2_0" index="0" disallow="tram rail_urban rail rail_electric rail_fast ship container cable_car subway aircraft wheelchair scooter drone" speed="13.89" length="0.33" shape="2765.59,1011.10 2765.84,1011.33"/>
    </edge>
    <edge id=":115976548_0" function="internal">
        <lane id=":115976548_0_0" index="0" disallow="tram rail_urban rail rail_electric rail_fast ship container cable_car subway aircraft wheelchair scooter drone" speed="13.89" length="7.83" shape="3619.86,1314.08 3617.52,1314.78 3616.07,1315.95 3614.63,1317.00 3612.28,1317.37"/>
        <lane id=":115976548_0_1" index="1" disallow="tram rail_urban rail rail_electric rail_fast ship container cable_car subway aircraft wheelchair scooter drone" speed="13.89" length="7.83" shape="3619.58,1310.89 3617.37,1311.58 3616.03,1312.74 3614.68,1313.80 3612.46,1314.17"/>
        <lane id=":115976548_0_2" index="2" disallow="tram rail_urban rail rail_electric rail_fast ship container cable_car subway aircraft wheelchair scooter drone" speed="13.89" length="7.83" shape="3619.58,1310.89 3617.53,1311.06 3616.12,1311.12 3614.71,1311.09 3612.65,1310.98"/>
    </edge>
    <edge id=":115976548_3" function="internal">
        <lane id=":115976548_3_0" index="0" disallow="tram rail_urban rail rail_electric rail_fast ship container cable_car subway aircraft wheelchair scooter drone" speed="13.89" length="6.87" shape="3612.83,1307.78 3614.78,1307.40 3615.93,1306.34 3617.08,1305.18 3619.03,1304.52"/>
        <lane id=":115976548_3_1" index="1" disallow="tram rail_urban rail rail_electric rail_fast ship container cable_car subway aircraft wheelchair scooter drone" speed="13.89" length="6.87" shape="3612.83,1307.78 3614.75,1307.89 3616.07,1307.92 3617.39,1307.86 3619.31,1307.70"/>
    </edge>
    <edge id=":18236974_0" function="internal">
        <lane id=":18236974_0_0" index="0" disallow="tram rail_urban rail rail_electric rail_fast ship container cable_car subway aircraft wheelchair scooter drone" speed="8.21" length="11.00" shape="3205.61,1227.89 3204.42,1224.65 3202.88,1222.29 3200.99,1220.79 3198.76,1220.16"/>
    </edge>
    <edge id=":18236974_1" function="internal">
        <lane id=":18236974_1_0" index="0" disallow="tram rail_urban rail rail_electric rail_fast ship container cable_car subway aircraft wheelchair scooter drone" speed="5.80" length="9.21" shape="3213.55,1222.02 3210.81,1221.98 3209.09,1222.83 3208.40,1224.58 3208.74,1227.22"/>
    </edge>
    <edge id=":18236974_2" function="internal">
        <lane id=":18236974_2_0" index="0" disallow="tram rail_urban rail rail_electric rail_fast ship container cable_car subway aircraft wheelchair scooter drone" speed="13.89" length="15.02" shape="3213.55,1222.02 3198.76,1220.16"/>
        <lane id=":18236974_2_1" index="1" disallow="tram rail_urban rail rail_electric rail_fast ship container cable_car subway aircraft wheelchair scooter drone" speed="13.89" length="15.02" shape="3214.03,1218.86 3199.01,1216.97"/>
    </edge>
    <edge id=":18236974_4" function="internal">
        <lane id=":18236974_4_0" index="0" disallow="tram rail_urban rail rail_electric rail_fast ship container cable_car subway aircraft wheelchair scooter drone" speed="13.89" length="15.48" shape="3199.52,1210.59 3214.99,1212.53"/>
        <lane id=":18236974_4_1" index="1" disallow="tram rail_urban rail rail_electric rail_fast ship container cable_car subway aircraft wheelchair scooter drone" speed="13.89" length="15.48" shape="3199.27,1213.78 3214.51,1215.70"/>
    </edge>
    <edge id=":18236974_6" function="internal">
        <lane id=":18236974_6_0" index="0" disallow="tram rail_urban rail rail_electric rail_fast ship container cable_car subway aircraft wheelchair scooter drone" speed="10.18" length="2.98" shape="3199.27,1213.78 3202.07,1214.80"/>
    </edge>
    <edge id=":18236974_7" function="internal">
        <lane id=":18236974_7_0" index="0" disallow="tram rail_urban rail rail_electric rail_fast ship container cable_car subway aircraft wheelchair scooter drone" speed="10.18" length="14.33" shape="3202.07,1214.80 3204.58,1217.38 3206.81,1221.52 3208.74,1227.22"/>
    </edge>
    <edge id=":2055565106_0" function="internal">
        <lane id=":2055565106_0_0" index="0" disallow="tram rail_urban rail rail_electric rail_fast ship container cable_car subway aircraft wheelchair scooter drone" speed="13.89" length="0.28" shape="2784.09,1037.01 2783.89,1036.84"/>
        <lane id=":2055565106_0_1" index="1" disallow="tram rail_urban rail rail_electric rail_fast ship container cable_car subway aircraft wheelchair scooter drone" speed="13.89" length="0.28" shape="2786.26,1034.66 2786.04,1034.46"/>
    </edge>
    <edge id=":2055565106_2" function="internal">
        <lane id=":2055565106_2_0" index="0" disallow="tram rail_urban rail rail_electric rail_fast ship container cable_car subway aircraft wheelchair scooter drone" speed="13.89" length="0.33" shape="2788.19,1032.09 2788.43,1032.31"/>
    </edge>
    <edge id=":2122119067_0" function="internal">
        <lane id=":2122119067_0_0" index="0" disallow="tram rail_urban rail rail_electric rail_fast ship container cable_car subway aircraft wheelchair scooter drone" speed="13.89" length="9.84" shape="3013.74,1161.34 3010.97,1160.48 3008.84,1160.63 3006.71,1160.77 3003.94,1159.92"/>
        <lane id=":2122119067_0_1" index="1" disallow="tram rail_urban rail rail_electric rail_fast ship container cable_car subway aircraft wheelchair scooter drone" speed="13.89" length="9.84" shape="3015.20,1158.49 3012.43,1157.63 3010.30,1157.78 3008.17,1157.92 3005.39,1157.07"/>
        <lane id=":2122119067_0_2" index="2" disallow="tram rail_urban rail rail_electric rail_fast ship container cable_car subway aircraft wheelchair scooter drone" speed="13.89" length="9.84" shape="3015.20,1158.49 3006.84,1154.22"/>
    </edge>
    <edge id=":2122119067_3" function="internal">
        <lane id=":2122119067_3_0" index="0" allow="pedestrian delivery bicycle" speed="7.64" length="2.82" shape="3015.20,1158.49 3013.01,1156.70"/>
    </edge>
    <edge id=":2122119067_10" function="internal">
        <lane id=":2122119067_10_0" index="0" allow="pedestrian delivery bicycle" speed="7.64" length="10.03" shape="3013.01,1156.70 3012.07,1154.22 3012.38,1151.04 3013.93,1147.16"/>
    </edge>
    <edge id=":2122119067_4" function="internal">
        <lane id=":2122119067_4_0" index="0" allow="pedestrian delivery bicycle" speed="5.04" length="5.00" shape="3016.77,1148.62 3016.33,1149.92 3016.40,1151.04 3017.00,1152.00 3018.12,1152.79"/>
    </edge>
    <edge id=":2122119067_5" function="internal">
        <lane id=":2122119067_5_0" index="0" allow="pedestrian delivery bicycle" speed="8.39" length="15.65" shape="3016.77,1148.62 3013.89,1153.38 3011.03,1156.38 3008.20,1157.61 3005.39,1157.07"/>
        <lane id=":2122119067_5_1" index="1" allow="pedestrian delivery bicycle" speed="7.65" length="12.83" shape="3016.77,1148.62 3014.53,1152.14 3012.12,1154.25 3009.56,1154.94 3006.84,1154.22"/>
    </edge>
    <edge id=":2122119067_7" function="internal">
        <lane id=":2122119067_7_0" index="0" allow="pedestrian delivery bicycle" speed="5.05" length="5.01" shape="3009.75,1148.52 3011.04,1148.96 3012.17,1148.88 3013.13,1148.28 3013.93,1147.16"/>
    </edge>
    <edge id=":2122119067_8" function="internal">
        <lane id=":2122119067_8_0" index="0" disallow="tram rail_urban rail rail_electric rail_fast ship container cable_car subway aircraft wheelchair scooter drone" speed="13.89" length="9.39" shape="3009.75,1148.52 3018.12,1152.79"/>
        <lane id=":2122119067_8_1" index="1" disallow="tram rail_urban rail rail_electric rail_fast ship container cable_car subway aircraft wheelchair scooter drone" speed="13.89" length="9.39" shape="3008.30,1151.37 3016.66,1155.64"/>
    </edge>
    <edge id=":2122119085_0" function="internal">
        <lane id=":2122119085_0_0" index="0" disallow="tram rail_urban rail rail_electric rail_fast ship container cable_car subway aircraft wheelchair scooter drone" speed="13.89" length="22.05" shape="3130.97,1275.92 3129.35,1272.10 3126.93,1267.65 3124.23,1262.30 3121.81,1255.78"/>
        <lane id=":2122119085_0_1" index="1" disallow="tram rail_urban rail rail_electric rail_fast ship container cable_car subway aircraft wheelchair scooter drone" speed="13.89" length="22.05" shape="3130.97,1275.92 3124.87,1254.85"/>
    </edge>
    <edge id=":2122119085_2" function="internal">
        <lane id=":2122119085_2_0" index="0" disallow="tram rail_urban rail rail_electric rail_fast ship container cable_car subway aircraft wheelchair scooter drone" speed="13.89" length="22.02" shape="3127.93,1253.92 3134.05,1275.07"/>
    </edge>
    <edge id=":2122121879_0" function="internal">
        <lane id=":2122121879_0_0" index="0" disallow="tram rail_urban rail rail_electric rail_fast ship container cable_car subway aircraft wheelchair scooter drone" speed="13.89" length="0.31" shape="3479.88,1289.38 3479.59,1289.30"/>
        <lane id=":2122121879_0_1" index="1" disallow="tram rail_urban rail rail_electric rail_fast ship container cable_car subway aircraft wheelchair scooter drone" speed="13.89" length="0.31" shape="3480.75,1286.30 3480.46,1286.22"/>
    </edge>
    <edge id=":2122121879_2" function="internal">
        <lane id=":2122121879_2_0" index="0" disallow="tram rail_urban rail rail_electric rail_fast ship container cable_car subway aircraft wheelchair scooter drone" speed="13.89" length="0.29" shape="3482.20,1280.06 3482.49,1280.14"/>
        <lane id=":2122121879_2_1" index="1" disallow="tram rail_urban rail rail_electric rail_fast ship container cable_car subway aircraft wheelchair scooter drone" speed="13.89" length="0.29" shape="3481.33,1283.14 3481.62,1283.22"/>
    </edge>
    <edge id=":2139989314_0" function="internal">
        <lane id=":2139989314_0_0" index="0" disallow="tram rail_urban rail rail_electric rail_fast ship container cable_car subway aircraft wheelchair scooter drone" speed="8.33" length="8.40" shape="2975.78,1074.52 2975.14,1076.95 2975.45,1078.81 2975.76,1080.68 2975.12,1083.11"/>
        <lane id=":2139989314_0_1" index="1" disallow="tram rail_urban rail rail_electric rail_fast ship container cable_car subway aircraft wheelchair scooter drone" speed="8.33" length="8.40" shape="2975.78,1074.52 2972.25,1081.70"/>
    </edge>
    <edge id=":2139989314_2" function="internal">
        <lane id=":2139989314_2_0" index="0" disallow="tram rail_urban rail rail_electric rail_fast ship container cable_car subway aircraft wheelchair scooter drone" speed="8.33" length="8.00" shape="2969.38,1080.28 2972.91,1073.10"/>
    </edge>
    <edge id=":239892028_0" function="internal">
        <lane id=":239892028_0_0" index="0" disallow="tram rail_urban rail rail_electric rail_fast ship container cable_car subway aircraft wheelchair scooter drone" speed="7.15" length="11.16" shape="2955.31,1135.08 2952.00,1133.73 2949.26,1133.48 2947.10,1134.32 2945.51,1136.26">
            <param key="DM" value="100"/>
            <param key="SG" value="K3"/>
        </lane>
    </edge>
    <edge id=":239892028_1" function="internal">
        <lane id=":239892028_1_0" index="0" disallow="tram rail_urban rail rail_electric rail_fast ship container cable_car subway aircraft wheelchair scooter drone" speed="13.89" length="20.53" shape="2955.31,1135.08 2950.19,1131.82 2947.03,1128.96 2943.89,1126.17 2938.80,1123.10">
            <param key="SG" value="K3"/>
        </lane>
        <lane id=":239892028_1_1" index="1" disallow="tram rail_urban rail rail_electric rail_fast ship container cable_car subway aircraft wheelchair scooter drone" speed="13.89" length="20.53" shape="2956.80,1132.25 2951.65,1128.98 2948.47,1126.10 2945.31,1123.30 2940.21,1120.23">
            <param key="DA" value="812"/>
            <param key="DM" value="523"/>
            <param key="DTV" value="9034"/>
            <param key="SG" value="K3"/>
        </lane>
    </edge>
    <edge id=":239892028_3" function="internal">
        <lane id=":239892028_3_0" index="0" disallow="tram rail_urban rail rail_electric rail_fast ship container cable_car subway aircraft wheelchair scooter drone" speed="9.94" length="5.39" shape="2958.29,1129.42 2954.16,1126.17 2954.11,1126.04">
            <param key="DA" value="62"/>
            <param key="DM" value="95"/>
            <param key="DTV" value="947"/>
            <param key="SG" value="K4"/>
        </lane>
    </edge>
    <edge id=":239892028_14" function="internal">
        <lane id=":239892028_14_0" index="0" disallow="tram rail_urban rail rail_electric rail_fast ship container cable_car subway aircraft wheelchair scooter drone" speed="9.94" length="16.62" shape="2954.11,1126.04 2952.18,1121.89 2952.34,1116.58 2954.63,1110.25">
            <param key="DA" value="62"/>
            <param key="DM" value="95"/>
            <param key="DTV" value="947"/>
            <param key="SG" value="K4"/>
        </lane>
    </edge>
    <edge id=":239892028_4" function="internal">
        <lane id=":239892028_4_0" index="0" disallow="tram rail_urban rail rail_electric rail_fast ship container cable_car subway aircraft wheelchair scooter drone" speed="7.59" length="12.38" shape="2960.59,1112.64 2959.06,1116.54 2958.66,1119.69 2959.39,1122.09 2961.27,1123.75">
            <param key="DA" value="140"/>
            <param key="DM" value="67"/>
            <param key="DTV" value="1398"/>
            <param key="SG" value="K5"/>
        </lane>
    </edge>
    <edge id=":239892028_5" function="internal">
        <lane id=":239892028_5_0" index="0" disallow="tram rail_urban rail rail_electric rail_fast ship container cable_car subway aircraft wheelchair scooter drone" speed="11.11" length="28.04" shape="2960.59,1112.64 2956.70,1119.50 2952.26,1126.15 2948.22,1131.96 2945.51,1136.26">
            <param key="DM" value="30"/>
            <param key="SG" value="K5"/>
        </lane>
    </edge>
    <edge id=":239892028_6" function="internal">
        <lane id=":239892028_6_0" index="0" disallow="tram rail_urban rail rail_electric rail_fast ship container cable_car subway aircraft wheelchair scooter drone" speed="9.86" length="8.97" shape="2957.61,1111.45 2953.95,1117.23 2952.31,1118.58">
            <param key="DA" value="77"/>
            <param key="DM" value="72"/>
            <param key="DTV" value="948"/>
            <param key="SG" value="K5"/>
        </lane>
    </edge>
    <edge id=":239892028_15" function="internal">
        <lane id=":239892028_15_0" index="0" disallow="tram rail_urban rail rail_electric rail_fast ship container cable_car subway aircraft wheelchair scooter drone" speed="9.86" length="13.13" shape="2952.31,1118.58 2949.83,1120.62 2945.25,1121.62 2940.21,1120.23">
            <param key="DA" value="77"/>
            <param key="DM" value="72"/>
            <param key="DTV" value="948"/>
            <param key="SG" value="K5"/>
        </lane>
    </edge>
    <edge id=":239892028_7" function="internal">
        <lane id=":239892028_7_0" index="0" disallow="tram rail_urban rail rail_electric rail_fast ship container cable_car subway aircraft wheelchair scooter drone" speed="7.28" length="11.58" shape="2944.45,1111.61 2947.96,1112.94 2950.82,1113.16 2953.05,1112.26 2954.63,1110.25">
            <param key="DA" value="16"/>
            <param key="DM" value="15"/>
            <param key="DTV" value="200"/>
            <param key="SG" value="K1"/>
        </lane>
    </edge>
    <edge id=":239892028_8" function="internal">
        <lane id=":239892028_8_0" index="0" disallow="tram rail_urban rail rail_electric rail_fast ship container cable_car subway aircraft wheelchair scooter drone" speed="13.89" length="20.78" shape="2944.45,1111.61 2949.76,1114.79 2953.03,1117.65 2956.21,1120.53 2961.27,1123.75">
            <param key="DM" value="716"/>
            <param key="DTV" value="9333"/>
            <param key="SG" value="K1"/>
        </lane>
        <lane id=":239892028_8_1" index="1" disallow="tram rail_urban rail rail_electric rail_fast ship container cable_car subway aircraft wheelchair scooter drone" speed="13.89" length="20.78" shape="2943.04,1114.49 2948.32,1117.64 2951.56,1120.50 2954.73,1123.37 2959.78,1126.59">
            <param key="DA" value="656"/>
            <param key="SG" value="K1"/>
        </lane>
    </edge>
    <edge id=":239892028_10" function="internal">
        <lane id=":239892028_10_0" index="0" disallow="tram rail_urban rail rail_electric rail_fast ship container cable_car subway aircraft wheelchair scooter drone" speed="9.77" length="5.57" shape="2941.62,1117.36 2945.97,1120.56 2946.05,1120.71">
            <param key="DM" value="250"/>
            <param key="SG" value="K6"/>
        </lane>
    </edge>
    <edge id=":239892028_16" function="internal">
        <lane id=":239892028_16_0" index="0" disallow="tram rail_urban rail rail_electric rail_fast ship container cable_car subway aircraft wheelchair scooter drone" speed="9.77" length="16.47" shape="2946.05,1120.71 2948.07,1124.78 2947.91,1130.01 2945.51,1136.26">
            <param key="DM" value="250"/>
            <param key="SG" value="K6"/>
        </lane>
    </edge>
    <edge id=":239892028_11" function="internal">
        <lane id=":239892028_11_0" index="0" disallow="tram rail_urban rail rail_electric rail_fast ship container cable_car subway aircraft wheelchair scooter drone" speed="7.23" length="11.60" shape="2939.84,1133.31 2941.28,1129.77 2941.59,1126.90 2940.76,1124.67 2938.80,1123.10">
            <param key="DA" value="189"/>
            <param key="DM" value="100"/>
            <param key="SG" value="K2"/>
        </lane>
    </edge>
    <edge id=":239892028_12" function="internal">
        <lane id=":239892028_12_0" index="0" disallow="tram rail_urban rail rail_electric rail_fast ship container cable_car subway aircraft wheelchair scooter drone" speed="11.11" length="27.41" shape="2939.84,1133.31 2943.79,1126.59 2948.14,1120.14 2952.04,1114.50 2954.63,1110.25">
            <param key="DA" value="30"/>
            <param key="DM" value="50"/>
            <param key="SG" value="K2"/>
        </lane>
    </edge>
    <edge id=":239892028_13" function="internal">
        <lane id=":239892028_13_0" index="0" disallow="tram rail_urban rail rail_electric rail_fast ship container cable_car subway aircraft wheelchair scooter drone" speed="9.72" length="8.55" shape="2942.67,1134.78 2946.38,1129.21 2947.84,1128.06">
            <param key="DM" value="17"/>
            <param key="SG" value="K2"/>
        </lane>
    </edge>
    <edge id=":239892028_17" function="internal">
        <lane id=":239892028_17_0" index="0" disallow="tram rail_urban rail rail_electric rail_fast ship container cable_car subway aircraft wheelchair scooter drone" speed="9.72" length="12.96" shape="2947.84,1128.06 2950.47,1125.98 2954.93,1125.11 2959.78,1126.59">
            <param key="DM" value="17"/>
            <param key="SG" value="K2"/>
        </lane>
    </edge>
    <edge id=":239892089_0" function="internal">
        <lane id=":239892089_0_0" index="0" disallow="tram rail_urban rail rail_electric rail_fast ship container cable_car subway aircraft wheelchair scooter drone" speed="13.89" length="13.20" shape="3254.03,1228.66 3250.29,1227.70 3247.71,1227.10 3245.11,1226.65 3241.28,1226.10"/>
        <lane id=":239892089_0_1" index="1" disallow="tram rail_urban rail rail_electric rail_fast ship container cable_car subway aircraft wheelchair scooter drone" speed="13.89" length="13.20" shape="3254.82,1225.56 3250.97,1224.57 3248.32,1223.96 3245.65,1223.49 3241.72,1222.93"/>
    </edge>
    <edge id=":239892089_2" function="internal">
        <lane id=":239892089_2_0" index="0" disallow="tram rail_urban rail rail_electric rail_fast ship container cable_car subway aircraft wheelchair scooter drone" speed="8.70" length="3.68" shape="3254.82,1225.56 3251.50,1223.96">
            <param key="DM" value="74"/>
        </lane>
    </edge>
    <edge id=":239892089_7" function="internal">