<?xml version="1.0" encoding="UTF-8"?>

<!-- generated on 2026-05-08T12:25:57.673085+01:00 by Eclipse SUMO sumo 1.25.0
-->

<sumoConfiguration xmlns:xsi="http://www.w3.org/2001/XMLSchema-instance" xsi:noNamespaceSchemaLocation="http://sumo.dlr.de/xsd/sumoConfiguration.xsd">

    <input>
        <net-file value="landau_corridor.net.xml"/>
        <additional-files value="Corridor_detectors_e1.add.xml,Corridor_detectors_e2.add.xml"/>
    </input>

</sumoConfiguration>
