<?xml version="1.0" encoding="UTF-8"?>


<routes xmlns:xsi="http://www.w3.org/2001/XMLSchema-instance" xsi:noNamespaceSchemaLocation="http://sumo.dlr.de/xsd/routes_file.xsd">
    <vType id="car" length="5.00" maxSpeed="13.90" vClass="passenger" accel="2.6" decel="4.5" sigma="0.5"/>
    <vehicle id="w_to_e" type="car" depart="10.00">
        <route edges="-26202222#0 -26202222#0.41 -202157700#5"/>
    </vehicle>
    <vehicle id="w_to_n" type="car" depart="20.00">
        <route edges="-26202222#0 -26202222#0.41 893429999#1"/>
    </vehicle>
    <vehicle id="w_to_s" type="car" depart="30.00">
        <route edges="-26202222#0 -26202222#0.41 12528053#0"/>
    </vehicle>
    <vehicle id="s_to_e" type="car" depart="40.00">
        <route edges="-202157703 -202157700#5"/>
    </vehicle>
    <vehicle id="e_to_w" type="car" depart="60.00">
        <route edges="202157700#3 26202222#0"/>
    </vehicle>
    <vehicle id="e_to_n" type="car" depart="70.00">
        <route edges="202157700#3 893429999#1"/>
    </vehicle>
    <vehicle id="n_to_w" type="car" depart="80.00">
        <route edges="-1182936853 26202222#0"/>
    </vehicle>
    <vehicle id="n_to_s" type="car" depart="90.00">
        <route edges="-1182936853 12528053#0"/>
    </vehicle>
</routes>
