<vTypeDistribution id="trafficMix">

    <vType id="car"
           vClass="passenger"
           accel="2.6"
           decel="4.5"
           sigma="0.25"
           tau="1.00"
           length="4.5"
           minGap="1.5"
           maxSpeed="16.67"
           speedFactor="normc(1.00,0.08,0.85,1.15)"
           lcStrategic="1.0"
           lcCooperative="1.0"
           lcSpeedGain="0.8"
           lcKeepRight="0.3"
           lcContRight="0.4"
           guiShape="passenger"
           probability="0.80"/>

    <vType id="van"
           vClass="delivery"
           accel="2.2"
           decel="4.5"
           sigma="0.25"
           tau="1.10"
           length="5.8"
           minGap="1.8"
           maxSpeed="15.50"
           speedFactor="normc(1.00,0.06,0.90,1.10)"
           lcStrategic="1.0"
           lcCooperative="1.0"
           lcSpeedGain="0.7"
           lcKeepRight="0.3"
           lcContRight="0.4"
           guiShape="delivery"
           probability="0.15"/>

    <vType id="truck"
           vClass="truck"
           accel="1.3"
           decel="4.0"
           sigma="0.20"
           tau="1.30"
           length="10.0"
           minGap="2.2"
           maxSpeed="13.90"
           speedFactor="normc(1.00,0.04,0.90,1.05)"
           lcStrategic="1.0"
           lcCooperative="1.0"
           lcSpeedGain="0.4"
           lcKeepRight="0.5"
           lcContRight="0.6"
           guiShape="truck"
           probability="0.05"/>

</vTypeDistribution>