<?xml version="1.0" encoding="UTF-8"?>
<routes xmlns:xsi="http://www.w3.org/2001/XMLSchema-instance" xsi:noNamespaceSchemaLocation="http://sumo.dlr.de/xsd/routes_file.xsd">
<!-- begin="0.0" end="4500.0" -->
    <vehicle id="0" depart="0.05" departLane="best" departSpeed="max" type="trafficMix">
        <route edges="-308681382#1 -202234068#2 -31971359#1 -31971359#0 -145057849#1 -145057849#0 -145057844 -202234343 -31971356 -202234344 59617619 237921040 12695649 12695650#1 59617584#2 180801664"/>
    </vehicle>
    <vehicle id="1" depart="0.14" departLane="best" departSpeed="max" type="trafficMix">
        <route edges="-26202222#0 -26202222#0.41 -202157700#5 -202157700#2 -14811377 -84620353#2 -60761760#3 -60761760#2 -202234065#3 -202234065#0 -75642284#1 -30329931#2 -30329931#1 -202234068#2 -31971359#1 -31971359#0 -145057849#1 -145057849#0 -145057844 -202234343 -31971356 -202234344 59617619 237921040 12695649 12695650#1 59617584#2 180801664"/>
    </vehicle>
    <vehicle id="2" depart="0.61" departLane="best" departSpeed="max" type="trafficMix">
        <route edges="-180801664 -59617584#4 -12695650#1 -12695650#0 -237921040 -59617619 12695647 31971356 202234343 145057844 145057844.12 145057849#1 31971359#0 31971359#1 202234068#0 30329931#0 30329931#2 75642284#1 202234065#0 202234065#1 60761760#0 60761760#3 75642281 14811377 202157700#0 202157700#3 26202222#0"/>
    </vehicle>
    <vehicle id="3" depart="1.02" departLane="best" departSpeed="max" type="trafficMix">
        <route edges="-308681382#1 -202234068#2 -31971359#1 -31971359#0 -145057849#1 -145057849#0 -145057844 -202234343 -31971356 -202234344 59617619 237921040 12695649 12695650#1 59617584#2 180801664"/>
    </vehicle>
    <vehicle id="4" depart="2.69" departLane="best" departSpeed="max" type="trafficMix">
        <route edges="-308681382#1 -202234068#2 -31971359#1 -31971359#0 -145057849#1 -145057849#0 -145057844 -202234343 -31971356 -202234344 59617619 237921040 12695649 12695650#1 59617584#2 180801664"/>
    </vehicle>
    <vehicle id="5" depart="2.94" departLane="best" departSpeed="max" type="trafficMix">
        <route edges="-308681382#1 -202234068#2 -31971359#1 -31971359#0 -145057849#1 -145057849#0 -145057844 -202234343 -31971356 -202234344 59617619 237921040 12695649 12695650#1 59617584#2 180801664"/>
    </vehicle>
    <vehicle id="6" depart="5.00" departLane="best" departSpeed="max" type="trafficMix">
        <route edges="-180801664 -59617584#4 -12695650#1 -12695650#0 -237921040 -59617619 12695647 31971356 202234343 145057844 145057844.12 145057849#1 31971359#0 31971359#1 202234068#0 30329931#0 30329931#2 75642284#1 202234065#0 202234065#1 60761760#0 60761760#3 75642281 14811377 202157700#0 202157700#3 26202222#0"/>
    </vehicle>
    <vehicle id="7" depart="6.09" departLane="best" departSpeed="max" type="trafficMix">
        <route edges="237921036 237921036.41 12695647 31971356 202234343 145057844 145057844.12 145057849#1 31971359#0 31971359#1 202234068#0 14811383#1 202234067"/>
    </vehicle>
    <vehicle id="8" depart="6.63" departLane="best" departSpeed="max" type="trafficMix">
        <route edges="-203986456#0 -60761764#2 60761760#0 60761760#3 75642281 14811377 202157700#0 202157700#3 12528053#0"/>
    </vehicle>
    <vehicle id="9" depart="7.04" departLane="best" departSpeed="max" type="trafficMix">
        <route edges="-180801664 -59617584#4 -12695650#1 -12695650#0 -237921040 -59617619 -237921036"/>
    </vehicle>
    <vehicle id="10" depart="8.96" departLane="best" departSpeed="max" type="trafficMix">
        <route edges="-81920369 -14811383#2 30329931#0 30329931#2 75642284#1 202234065#0 202234065#1 60761760#0 60761760#3 75642281 13831317#0"/>
    </vehicle>
    <vehicle id="11" depart="17.19" departLane="best" departSpeed="max" type="trafficMix">
        <route edges="-1183449794 -84620353#2 -60761760#3 -60761760#2 -202234065#3 -202234065#0 -75642284#1 -30329931#2 -30329931#1 14811383#1 202234067"/>
    </vehicle>
    <vehicle id="12" depart="18.84" departLane="best" departSpeed="max" type="trafficMix">
        <route edges="-202157703 893429999#1"/>
    </vehicle>
    <vehicle id="13" depart="19.63" departLane="best" departSpeed="max" type="trafficMix">
        <route edges="237921036 237921036.41 12695647 31971356 202234343 145057844 145057844.12 145057849#1 31971359#0 31971359#1 202234068#0 14811383#1 202234067"/>
    </vehicle>
    <vehicle id="14" depart="23.91" departLane="best" departSpeed="max" type="trafficMix">
        <route edges="-180801664 -59617584#4 -12695650#1 -12695650#0 -237921040 -59617619 12695647 31971356 202234343 145057844 145057844.12 145057849#1 31971359#0 31971359#1 202234068#0 30329931#0 30329931#2 75642284#1 202234065#0 202234065#1 60761760#0 60761760#3 75642281 14811377 202157700#0 202157700#3 26202222#0"/>
    </vehicle>
    <vehicle id="15" depart="24.78" departLane="best" departSpeed="max" type="trafficMix">
        <route edges="237921036 237921036.41 12695647 31971356 202234343 145057844 145057844.12 145057849#1 31971359#0 31971359#1 202234068#0 14811383#1 202234067"/>
    </vehicle>
    <vehicle id="16" depart="27.21" departLane="best" departSpeed="max" type="trafficMix">
        <route edges="-308681382#1 -202234068#2 -31971359#1 -31971359#0 -145057849#1 -145057849#0 -145057844 -202234343 -31971356 -202234344 59617619 237921040 12695649 12695650#1 59617584#2 180801664"/>
    </vehicle>
    <vehicle id="17" depart="28.71" departLane="best" departSpeed="max" type="trafficMix">
        <route edges="-81920369 -14811383#2 14811373#0"/>
    </vehicle>
    <vehicle id="18" depart="29.09" departLane="best" departSpeed="max" type="trafficMix">
        <route edges="-1182936853 26202222#0"/>
    </vehicle>
    <vehicle id="19" depart="30.95" departLane="best" departSpeed="max" type="trafficMix">
        <route edges="-202157703 893429999#1"/>
    </vehicle>
    <vehicle id="20" depart="31.42" departLane="best" departSpeed="max" type="trafficMix">
        <route edges="-202157703 893429999#1"/>
    </vehicle>
    <vehicle id="21" depart="34.49" departLane="best" departSpeed="max" type="trafficMix">
        <route edges="-202157703 -202157700#5 -202157700#2 -14811377 -84620353#2 -60761760#3 -60761760#2 -202234065#3 -202234065#0 -75642284#1 -30329931#2 -30329931#1 -202234068#2 -31971359#1 -31971359#0 -145057849#1 -145057849#0 -145057844 -202234343 -31971356 -202234344 -237921036"/>
    </vehicle>
    <vehicle id="22" depart="35.29" departLane="best" departSpeed="max" type="trafficMix">
        <route edges="-180801664 -59617584#4 -12695650#1 -12695650#0 -237921040 -59617619 -281402235#1 -281402232"/>
    </vehicle>
    <vehicle id="23" depart="37.44" departLane="best" departSpeed="max" type="trafficMix">
        <route edges="-1183449794 -84620353#2 -60761760#3 -60761760#2 -202234065#3 -202234065#0 -75642284#1 -30329931#2 -30329931#1 -202234068#2 -31971359#1 -31971359#0 -145057849#1 -145057849#0 -145057844 -202234343 -31971356 -202234344 -281402235#1 -281402232"/>
    </vehicle>
    <vehicle id="24" depart="37.64" departLane="best" departSpeed="max" type="trafficMix">
        <route edges="-180801664 -59617584#4 -12695650#1 -12695650#0 -237921040 -59617619 -237921036"/>
    </vehicle>
    <vehicle id="25" depart="39.88" departLane="best" departSpeed="max" type="trafficMix">
        <route edges="237921036 237921036.41 59617619 237921040 12695649 12695650#1 59617584#2 180801664"/>
    </vehicle>
    <vehicle id="26" depart="40.67" departLane="best" departSpeed="max" type="trafficMix">
        <route edges="-203986456#0 -60761764#2 60761760#0 60761760#3 75642281 14811377 202157700#0 202157700#3 12528053#0"/>
    </vehicle>
    <vehicle id="27" depart="40.74" departLane="best" departSpeed="max" type="trafficMix">
        <route edges="237921036 237921036.41 12695647 31971356 202234343 145057844 145057844.12 145057849#1 31971359#0 31971359#1 202234068#0 14811383#1 202234067"/>
    </vehicle>
    <vehicle id="28" depart="44.60" departLane="best" departSpeed="max" type="trafficMix">
        <route edges="237921036 237921036.41 59617619 237921040 12695649 12695650#1 59617584#2 180801664"/>
    </vehicle>
    <vehicle id="29" depart="44.66" departLane="best" departSpeed="max" type="trafficMix">
        <route edges="237921036 237921036.41 59617619 237921040 12695649 12695650#1 59617584#2 180801664"/>
    </vehicle>
    <vehicle id="30" depart="44.90" departLane="best" departSpeed="max" type="trafficMix">
        <route edges="-26202222#0 -26202222#0.41 -202157700#5 -202157700#2 -14811377 -84620353#2 -60761760#3 -60761760#2 -202234065#3 -202234065#0 -75642284#1 -30329931#2 -30329931#1 14811373#0"/>
    </vehicle>
    <vehicle id="31" depart="45.59" departLane="best" departSpeed="max" type="trafficMix">
        <route edges="-180801664 -59617584#4 -12695650#1 -12695650#0 -237921040 -59617619 12695647 31971356 202234343 145057844 145057844.12 145057849#1 31971359#0 31971359#1 202234068#0 30329931#0 30329931#2 75642284#1 202234065#0 202234065#1 60761760#0 60761760#3 75642281 14811377 202157700#0 202157700#3 26202222#0"/>
    </vehicle>
    <vehicle id="32" depart="46.28" departLane="best" departSpeed="max" type="trafficMix">
        <route edges="237921036 237921036.41 -281402235#1 -281402232"/>
    </vehicle>
    <vehicle id="33" depart="48.22" departLane="best" departSpeed="max" type="trafficMix">
        <route edges="237921036 237921036.41 12695647 31971356 202234343 145057844 145057844.12 145057849#1 31971359#0 31971359#1 202234068#0 30329931#0 30329931#2 75642284#1 202234065#0 202234065#1 60761760#0 60761760#3 75642281 14811377 202157700#0 202157700#3 12528053#0"/>
    </vehicle>
    <vehicle id="34" depart="48.65" departLane="best" departSpeed="max" type="trafficMix">
        <route edges="-202157703 893429999#1"/>
    </vehicle>
    <vehicle id="35" depart="50.86" departLane="best" departSpeed="max" type="trafficMix">
        <route edges="237921036 237921036.41 -281402235#1 -281402232"/>
    </vehicle>
    <vehicle id="36" depart="51.38" departLane="best" departSpeed="max" type="trafficMix">
        <route edges="-180801664 -59617584#4 -12695650#1 -12695650#0 -237921040 -59617619 -281402235#1 -281402232"/>
    </vehicle>
    <vehicle id="37" depart="52.68" departLane="best" departSpeed="max" type="trafficMix">
        <route edges="-1182936853 12528053#0"/>
    </vehicle>
    <vehicle id="38" depart="54.46" departLane="best" departSpeed="max" type="trafficMix">
        <route edges="-26202222#0 -26202222#0.41 -202157700#5 -202157700#2 -14811377 -84620353#2 -60761760#3 -60761760#2 -202234065#3 -202234065#0 -75642284#1 -30329931#2 -30329931#1 -202234068#2 -31971359#1 -31971359#0 -145057849#1 -145057849#0 -145057844 -202234343 -31971356 -202234344 -281402235#1 -281402232"/>
    </vehicle>
    <vehicle id="39" depart="54.71" departLane="best" departSpeed="max" type="trafficMix">
        <route edges="-26202222#0 -26202222#0.41 -202157700#5 -202157700#2 -14811377 -84620353#2 -60761760#3 -60761760#2 -202234065#3 -202234065#0 -75642284#1 -30329931#2 -30329931#1 -202234068#2 -31971359#1 -31971359#0 -145057849#1 -145057849#0 -145057844 -202234343 -31971356 -202234344 59617619 237921040 12695649 12695650#1 59617584#2 180801664"/>
    </vehicle>
    <vehicle id="40" depart="55.82" departLane="best" departSpeed="max" type="trafficMix">
        <route edges="-203986456#0 -60761764#2 60761760#0 60761760#3 75642281 14811377 202157700#0 202157700#3 12528053#0"/>
    </vehicle>
    <vehicle id="41" depart="58.04" departLane="best" departSpeed="max" type="trafficMix">
        <route edges="-202157703 893429999#1"/>
    </vehicle>
    <vehicle id="42" depart="59.53" departLane="best" departSpeed="max" type="trafficMix">
        <route edges="-203986456#0 -60761764#2 60761760#0 60761760#3 75642281 14811377 202157700#0 202157700#3 12528053#0"/>
    </vehicle>
    <vehicle id="43" depart="61.57" departLane="best" departSpeed="max" type="trafficMix">
        <route edges="-202157703 893429999#1"/>
    </vehicle>
    <vehicle id="44" depart="61.85" departLane="best" departSpeed="max" type="trafficMix">
        <route edges="-26202222#0 -26202222#0.41 -202157700#5 -202157700#2 -14811377 -84620353#2 -60761760#3 -60761760#2 -202234065#3 -202234065#0 -75642284#1 -30329931#2 -30329931#1 14811373#0"/>
    </vehicle>
    <vehicle id="45" depart="62.38" departLane="best" departSpeed="max" type="trafficMix">
        <route edges="-26202222#0 -26202222#0.41 -202157700#5 -202157700#2 -14811377 -84620353#2 -60761760#3 -60761760#2 -202234065#3 -202234065#0 -75642284#1 -30329931#2 -30329931#1 14811373#0"/>
    </vehicle>
    <vehicle id="46" depart="64.42" departLane="best" departSpeed="max" type="trafficMix">
        <route edges="-180801664 -59617584#4 -12695650#1 -12695650#0 -237921040 -59617619 -281402235#1 -281402232"/>
    </vehicle>
    <vehicle id="47" depart="64.72" departLane="best" departSpeed="max" type="trafficMix">
        <route edges="-202157703 -202157700#5 -202157700#2 -14811377 -84620353#2 -60761760#3 -60761760#2 -202234065#3 -202234065#0 -75642284#1 -30329931#2 -30329931#1 -202234068#2 -31971359#1 -31971359#0 -145057849#1 -145057849#0 -145057844 -202234343 -31971356 -202234344 -237921036"/>
    </vehicle>
    <vehicle id="48" depart="66.12" departLane="best" departSpeed="max" type="trafficMix">
        <route edges="-203986456#0 -60761764#2 -202234065#3 -202234065#0 -75642284#1 -30329931#2 -30329931#1 14811383#1 202234067"/>
    </vehicle>
    <vehicle id="49" depart="68.00" departLane="best" departSpeed="max" type="trafficMix">
        <route edges="-203986456#0 -60761764#2 60761760#0 60761760#3 75642281 14811377 202157700#0 202157700#3 12528053#0"/>
    </vehicle>
    <vehicle id="50" depart="69.28" departLane="best" departSpeed="max" type="trafficMix">
        <route edges="237921036 237921036.41 12695647 31971356 202234343 145057844 145057844.12 145057849#1 31971359#0 31971359#1 202234068#0 14811383#1 202234067"/>
    </vehicle>
    <vehicle id="51" depart="72.90" departLane="best" departSpeed="max" type="trafficMix">
        <route edges="-1182936853 12528053#0"/>
    </vehicle>
    <vehicle id="52" depart="73.10" departLane="best" departSpeed="max" type="trafficMix">
        <route edges="237921036 237921036.41 59617619 237921040 12695649 12695650#1 59617584#2 180801664"/>
    </vehicle>
    <vehicle id="53" depart="74.67" departLane="best" departSpeed="max" type="trafficMix">
        <route edges="-81920369 -14811383#2 308681382#0"/>
    </vehicle>
    <vehicle id="54" depart="76.26" departLane="best" departSpeed="max" type="trafficMix">
        <route edges="237921036 237921036.41 59617619 237921040 12695649 12695650#1 59617584#2 180801664"/>
    </vehicle>
    <vehicle id="55" depart="78.99" departLane="best" departSpeed="max" type="trafficMix">
        <route edges="237921036 237921036.41 59617619 237921040 12695649 12695650#1 59617584#2 180801664"/>
    </vehicle>
    <vehicle id="56" depart="81.03" departLane="best" departSpeed="max" type="trafficMix">
        <route edges="-25563346#2 13831317#0"/>
    </vehicle>
    <vehicle id="57" depart="81.56" departLane="best" departSpeed="max" type="trafficMix">
        <route edges="-202157703 893429999#1"/>
    </vehicle>
    <vehicle id="58" depart="86.02" departLane="best" departSpeed="max" type="trafficMix">
        <route edges="-202157703 -202157700#5 -202157700#2 -14811377 -84620353#2 -60761760#3 -60761760#2 -202234065#3 -202234065#0 -75642284#1 -30329931#2 -30329931#1 -202234068#2 -31971359#1 -31971359#0 -145057849#1 -145057849#0 -145057844 -202234343 -31971356 -202234344 -237921036"/>
    </vehicle>
    <vehicle id="59" depart="86.08" departLane="best" departSpeed="max" type="trafficMix">
        <route edges="237921036 237921036.41 59617619 237921040 12695649 12695650#1 59617584#2 180801664"/>
    </vehicle>
    <vehicle id="60" depart="86.15" departLane="best" departSpeed="max" type="trafficMix">
        <route edges="-13831317#2 -13831317#2.34 25563346#0"/>
    </vehicle>
    <vehicle id="61" depart="86.20" departLane="best" departSpeed="max" type="trafficMix">
        <route edges="237921036 237921036.41 59617619 237921040 12695649 12695650#1 59617584#2 180801664"/>
    </vehicle>
    <vehicle id="62" depart="86.97" departLane="best" departSpeed="max" type="trafficMix">
        <route edges="-180801664 -59617584#4 -12695650#1 -12695650#0 -237921040 -59617619 12695647 31971356 202234343 145057844 145057844.12 145057849#1 31971359#0 31971359#1 202234068#0 308681382#0"/>
    </vehicle>
    <vehicle id="63" depart="90.62" departLane="best" departSpeed="max" type="trafficMix">
        <route edges="-308681382#1 -202234068#2 -31971359#1 -31971359#0 -145057849#1 -145057849#0 -145057844 -202234343 -31971356 -202234344 59617619 237921040 12695649 12695650#1 59617584#2 180801664"/>
    </vehicle>
    <vehicle id="64" depart="94.20" departLane="best" departSpeed="max" type="trafficMix">
        <route edges="237921036 237921036.41 59617619 237921040 12695649 12695650#1 59617584#2 180801664"/>
    </vehicle>
    <vehicle id="65" depart="98.61" departLane="best" departSpeed="max" type="trafficMix">
        <route edges="-180801664 -59617584#4 -12695650#1 -12695650#0 -237921040 -59617619 12695647 31971356 202234343 145057844 145057844.12 145057849#1 -22293947"/>
    </vehicle>
    <vehicle id="66" depart="99.30" departLane="best" departSpeed="max" type="trafficMix">
        <route edges="-25563346#2 13831317#0"/>
    </vehicle>
    <vehicle id="67" depart="100.92" departLane="best" departSpeed="max" type="trafficMix">
        <route edges="-13831317#2 -13831317#2.34 -84620353#2 -60761760#3 -60761760#2 -202234065#3 -202234065#0 -75642284#1 -30329931#2 -30329931#1 14811383#1 202234067"/>
    </vehicle>
    <vehicle id="68" depart="101.54" departLane="best" departSpeed="max" type="trafficMix">
        <route edges="-180801664 -59617584#4 -12695650#1 -12695650#0 -237921040 -59617619 -237921036"/>
    </vehicle>
    <vehicle id="69" depart="105.08" departLane="best" departSpeed="max" type="trafficMix">
        <route edges="-308681382#1 -202234068#2 -31971359#1 -31971359#0 -145057849#1 -145057849#0 -145057844 -202234343 -31971356 -202234344 59617619 237921040 12695649 12695650#1 59617584#2 180801664"/>
    </vehicle>
    <vehicle id="70" depart="106.18" departLane="best" departSpeed="max" type="trafficMix">
        <route edges="-1183449794 -84620353#2 -60761760#3 -60761760#2 -202234065#3 -202234065#0 -75642284#1 -30329931#2 -30329931#1 -202234068#2 -31971359#1 -31971359#0 -145057849#1 -145057849#0 -145057844 -202234343 -31971356 -202234344 -281402235#1 -281402232"/>
    </vehicle>
    <vehicle id="71" depart="106.68" departLane="best" departSpeed="max" type="trafficMix">
        <route edges="-26202222#0 -26202222#0.41 -202157700#5 -202157700#2 -14811377 -84620353#2 -60761760#3 -60761760#2 -202234065#3 -202234065#0 -75642284#1 -30329931#2 -30329931#1 14811373#0"/>
    </vehicle>
    <vehicle id="72" depart="107.76" departLane="best" departSpeed="max" type="trafficMix">
        <route edges="-308681382#1 -202234068#2 -31971359#1 -31971359#0 -145057849#1 -145057849#0 -145057844 -202234343 -31971356 -202234344 59617619 237921040 12695649 12695650#1 59617584#2 180801664"/>
    </vehicle>
    <vehicle id="73" depart="108.02" departLane="best" departSpeed="max" type="trafficMix">
        <route edges="-13831317#2 -13831317#2.34 -84620353#2 -60761760#3 -60761760#2 -202234065#3 -202234065#0 -75642284#1 -30329931#2 -30329931#1 14811383#1 202234067"/>
    </vehicle>
    <vehicle id="74" depart="112.37" departLane="best" departSpeed="max" type="trafficMix">
        <route edges="-13831317#2 -13831317#2.34 -84620353#2 -60761760#3 -60761760#2 -202234065#3 -202234065#0 -75642284#1 -30329931#2 -30329931#1 14811383#1 202234067"/>
    </vehicle>
    <vehicle id="75" depart="113.37" departLane="best" departSpeed="max" type="trafficMix">
        <route edges="237921036 237921036.41 59617619 237921040 12695649 12695650#1 59617584#2 180801664"/>
    </vehicle>
    <vehicle id="76" depart="113.40" departLane="best" departSpeed="max" type="trafficMix">
        <route edges="-180801664 -59617584#4 -12695650#1 -12695650#0 -237921040 -59617619 -237921036"/>
    </vehicle>
    <vehicle id="77" depart="114.07" departLane="best" departSpeed="max" type="trafficMix">
        <route edges="-180801664 -59617584#4 -12695650#1 -12695650#0 -237921040 -59617619 12695647 31971356 202234343 145057844 145057844.12 145057849#1 31971359#0 31971359#1 202234068#0 30329931#0 30329931#2 75642284#1 202234065#0 202234065#1 60761760#0 60761760#3 75642281 14811377 202157700#0 202157700#3 26202222#0"/>
    </vehicle>
    <vehicle id="78" depart="114.51" departLane="best" departSpeed="max" type="trafficMix">
        <route edges="-202157703 -202157700#5 -202157700#2 -14811377 -84620353#2 -60761760#3 -60761760#2 -202234065#3 -202234065#0 -75642284#1 -30329931#2 -30329931#1 -202234068#2 -31971359#1 -31971359#0 -145057849#1 -145057849#0 -145057844 -202234343 -31971356 -202234344 -237921036"/>
    </vehicle>
    <vehicle id="79" depart="115.60" departLane="best" departSpeed="max" type="trafficMix">
        <route edges="237921036 237921036.41 12695647 31971356 202234343 145057844 145057844.12 145057849#1 31971359#0 31971359#1 202234068#0 14811383#1 202234067"/>
    </vehicle>
    <vehicle id="80" depart="115.96" departLane="best" departSpeed="max" type="trafficMix">
        <route edges="-1182936853 26202222#0"/>
    </vehicle>
    <vehicle id="81" depart="123.92" departLane="best" departSpeed="max" type="trafficMix">
        <route edges="-180801664 -59617584#4 -12695650#1 -12695650#0 -237921040 -59617619 -281402235#1 -281402232"/>
    </vehicle>
    <vehicle id="82" depart="125.34" departLane="best" departSpeed="max" type="trafficMix">
        <route edges="-180801664 -59617584#4 -12695650#1 -12695650#0 -237921040 -59617619 12695647 31971356 202234343 145057844 145057844.12 145057849#1 31971359#0 31971359#1 202234068#0 30329931#0 30329931#2 75642284#1 202234065#0 202234065#1 60761760#0 60761760#3 75642281 14811377 202157700#0 202157700#3 26202222#0"/>
    </vehicle>
    <vehicle id="83" depart="128.94" departLane="best" departSpeed="max" type="trafficMix">
        <route edges="-81920369 -14811383#2 14811373#0"/>
    </vehicle>
    <vehicle id="84" depart="131.26" departLane="best" departSpeed="max" type="trafficMix">
        <route edges="-180801664 -59617584#4 -12695650#1 -12695650#0 -237921040 -59617619 -237921036"/>
    </vehicle>
    <vehicle id="85" depart="135.12" departLane="best" departSpeed="max" type="trafficMix">
        <route edges="-26202222#0 -26202222#0.41 893429999#1"/>
    </vehicle>
    <vehicle id="86" depart="135.47" departLane="best" departSpeed="max" type="trafficMix">
        <route edges="-180801664 -59617584#4 -12695650#1 -12695650#0 -237921040 -59617619 -237921036"/>
    </vehicle>
    <vehicle id="87" depart="137.09" departLane="best" departSpeed="max" type="trafficMix">
        <route edges="-180801664 -59617584#4 -12695650#1 -12695650#0 -237921040 -59617619 12695647 31971356 202234343 145057844 145057844.12 145057849#1 31971359#0 31971359#1 202234068#0 30329931#0 30329931#2 75642284#1 202234065#0 202234065#1 60761760#0 60761760#3 75642281 14811377 202157700#0 202157700#3 26202222#0"/>
    </vehicle>
    <vehicle id="88" depart="139.30" departLane="best" departSpeed="max" type="trafficMix">
        <route edges="237921036 237921036.41 12695647 31971356 202234343 145057844 145057844.12 145057849#1 31971359#0 31971359#1 202234068#0 14811383#1 202234067"/>
    </vehicle>
    <vehicle id="89" depart="140.17" departLane="best" departSpeed="max" type="trafficMix">
        <route edges="-180801664 -59617584#4 -12695650#1 -12695650#0 -237921040 -59617619 12695647 31971356 202234343 145057844 145057844.12 145057849#1 -22293947"/>
    </vehicle>
    <vehicle id="90" depart="142.85" departLane="best" departSpeed="max" type="trafficMix">
        <route edges="-13831317#2 -13831317#2.34 17707991#0"/>
    </vehicle>
    <vehicle id="91" depart="146.00" departLane="best" departSpeed="max" type="trafficMix">
        <route edges="-180801664 -59617584#4 -12695650#1 -12695650#0 -237921040 -59617619 12695647 31971356 202234343 145057844 145057844.12 145057849#1 31971359#0 31971359#1 202234068#0 30329931#0 30329931#2 75642284#1 202234065#0 202234065#1 60761760#0 60761760#3 75642281 14811377 202157700#0 202157700#3 26202222#0"/>
    </vehicle>
    <vehicle id="92" depart="146.97" departLane="best" departSpeed="max" type="trafficMix">
        <route edges="237921036 237921036.41 59617619 237921040 12695649 12695650#1 59617584#2 180801664"/>
    </vehicle>
    <vehicle id="93" depart="149.35" departLane="best" departSpeed="max" type="trafficMix">
        <route edges="-308681382#1 -202234068#2 -31971359#1 -31971359#0 -145057849#1 -145057849#0 -145057844 -202234343 -31971356 -202234344 59617619 237921040 12695649 12695650#1 59617584#2 180801664"/>
    </vehicle>
    <vehicle id="94" depart="151.54" departLane="best" departSpeed="max" type="trafficMix">
        <route edges="-26202222#0 -26202222#0.41 -202157700#5 -202157700#2 -14811377 -84620353#2 -60761760#3 -60761760#2 -202234065#3 -202234065#0 -75642284#1 -30329931#2 -30329931#1 14811373#0"/>
    </vehicle>
    <vehicle id="95" depart="156.02" departLane="best" departSpeed="max" type="trafficMix">
        <route edges="-1182936853 12528053#0"/>
    </vehicle>
    <vehicle id="96" depart="156.03" departLane="best" departSpeed="max" type="trafficMix">
        <route edges="-202157703 -202157700#5 -202157700#2 -14811377 -84620353#2 -60761760#3 -60761760#2 -202234065#3 -202234065#0 -75642284#1 -30329931#2 -30329931#1 -202234068#2 -31971359#1 -31971359#0 -145057849#1 -145057849#0 -145057844 -202234343 -31971356 -202234344 -237921036"/>
    </vehicle>
    <vehicle id="97" depart="157.10" departLane="best" departSpeed="max" type="trafficMix">
        <route edges="-308681382#1 -202234068#2 -31971359#1 -31971359#0 -145057849#1 -145057849#0 -145057844 -202234343 -31971356 -202234344 59617619 237921040 12695649 12695650#1 59617584#2 180801664"/>
    </vehicle>
    <vehicle id="98" depart="160.16" departLane="best" departSpeed="max" type="trafficMix">
        <route edges="-180801664 -59617584#4 -12695650#1 -12695650#0 -237921040 -59617619 12695647 31971356 202234343 145057844 145057844.12 145057849#1 31971359#0 31971359#1 202234068#0 308681382#0"/>
    </vehicle>
    <vehicle id="99" depart="162.08" departLane="best" departSpeed="max" type="trafficMix">
        <route edges="-180801664 -59617584#4 -12695650#1 -12695650#0 -237921040 -59617619 12695647 31971356 202234343 145057844 145057844.12 145057849#1 31971359#0 31971359#1 202234068#0 30329931#0 30329931#2 75642284#1 202234065#0 202234065#1 60761760#0 60761760#3 75642281 14811377 202157700#0 202157700#3 26202222#0"/>
    </vehicle>
    <vehicle id="100" depart="165.25" departLane="best" departSpeed="max" type="trafficMix">
        <route edges="237921036 237921036.41 59617619 237921040 12695649 12695650#1 59617584#2 180801664"/>
    </vehicle>
    <vehicle id="101" depart="169.07" departLane="best" departSpeed="max" type="trafficMix">
        <route edges="-1183449794 -84620353#2 -60761760#3 -60761760#2 -202234065#3 -202234065#0 -75642284#1 -30329931#2 -30329931#1 14811383#1 202234067"/>
    </vehicle>
    <vehicle id="102" depart="175.18" departLane="best" departSpeed="max" type="trafficMix">
        <route edges="-25563346#2 13831317#0"/>
    </vehicle>
    <vehicle id="103" depart="175.22" departLane="best" departSpeed="max" type="trafficMix">
        <route edges="-26202222#0 -26202222#0.41 893429999#1"/>
    </vehicle>
    <vehicle id="104" depart="175.31" departLane="best" departSpeed="max" type="trafficMix">
        <route edges="237921036 237921036.41 12695647 31971356 202234343 145057844 145057844.12 145057849#1 31971359#0 31971359#1 202234068#0 14811383#1 202234067"/>
    </vehicle>
    <vehicle id="105" depart="175.41" departLane="best" departSpeed="max" type="trafficMix">
        <route edges="-1183449794 -84620353#2 -60761760#3 -60761760#2 -202234065#3 -202234065#0 -75642284#1 -30329931#2 -30329931#1 14811383#1 202234067"/>
    </vehicle>
    <vehicle id="106" depart="175.48" departLane="best" departSpeed="max" type="trafficMix">
        <route edges="237921036 237921036.41 59617619 237921040 12695649 12695650#1 59617584#2 180801664"/>
    </vehicle>
    <vehicle id="107" depart="176.71" departLane="best" departSpeed="max" type="trafficMix">
        <route edges="-202157703 893429999#1"/>
    </vehicle>
    <vehicle id="108" depart="177.26" departLane="best" departSpeed="max" type="trafficMix">
        <route edges="-202157703 893429999#1"/>
    </vehicle>
    <vehicle id="109" depart="177.57" departLane="best" departSpeed="max" type="trafficMix">
        <route edges="-26202222#0 -26202222#0.41 -202157700#5 -202157700#2 -14811377 -84620353#2 -60761760#3 -60761760#2 -202234065#3 -202234065#0 -75642284#1 -30329931#2 -30329931#1 -202234068#2 -31971359#1 -31971359#0 -145057849#1 -145057849#0 -145057844 -202234343 -31971356 -202234344 -281402235#1 -281402232"/>
    </vehicle>
    <vehicle id="110" depart="179.15" departLane="best" departSpeed="max" type="trafficMix">
        <route edges="-26202222#0 -26202222#0.41 -202157700#5 -202157700#2 -14811377 -84620353#2 -60761760#3 -60761760#2 -202234065#3 -202234065#0 -75642284#1 -30329931#2 -30329931#1 14811373#0"/>
    </vehicle>
    <vehicle id="111" depart="180.27" departLane="best" departSpeed="max" type="trafficMix">
        <route edges="-203986456#0 -60761764#2 60761760#0 60761760#3 75642281 14811377 202157700#0 202157700#3 12528053#0"/>
    </vehicle>
    <vehicle id="112" depart="180.62" departLane="best" departSpeed="max" type="trafficMix">