<?xml version="1.0" encoding="UTF-8"?>
<routes xmlns:xsi="http://www.w3.org/2001/XMLSchema-instance" xsi:noNamespaceSchemaLocation="http://sumo.dlr.de/xsd/routes_file.xsd">
<!-- begin="0.0" end="4500.0" -->
    <vehicle id="0" depart="0.84" departLane="best" departSpeed="max" type="trafficMix">
        <route edges="-26202222#0 -26202222#0.41 -202157700#5 -202157700#2 -14811377 -84620353#2 -60761760#3 -60761760#2 -202234065#3 -202234065#0 -75642284#1 -30329931#2 -30329931#1 14811373#0"/>
    </vehicle>
    <vehicle id="1" depart="1.99" departLane="best" departSpeed="max" type="trafficMix">
        <route edges="-26202222#0 -26202222#0.41 -202157700#5 -202157700#2 -14811377 -84620353#2 -60761760#3 -60761760#2 -202234065#3 -202234065#0 -75642284#1 -30329931#2 -30329931#1 14811383#1 202234067"/>
    </vehicle>
    <vehicle id="2" depart="2.82" departLane="best" departSpeed="max" type="trafficMix">
        <route edges="-202157703 893429999#1"/>
    </vehicle>
    <vehicle id="3" depart="3.36" departLane="best" departSpeed="max" type="trafficMix">
        <route edges="-202157703 -202157700#5 -202157700#2 -14811377 -84620353#2 -60761760#3 -60761760#2 -202234065#3 -202234065#0 -75642284#1 -30329931#2 -30329931#1 -202234068#2 -31971359#1 -31971359#0 -145057849#1 -145057849#0 -145057844 -202234343 -31971356 -202234344 -237921036"/>
    </vehicle>
    <vehicle id="4" depart="4.18" departLane="best" departSpeed="max" type="trafficMix">
        <route edges="-26202222#0 -26202222#0.41 -202157700#5 -202157700#2 -14811377 -84620353#2 -60761760#3 -60761760#2 -202234065#3 -202234065#0 -75642284#1 -30329931#2 -30329931#1 14811373#0"/>
    </vehicle>
    <vehicle id="5" depart="5.71" departLane="best" departSpeed="max" type="trafficMix">
        <route edges="-180801664 -59617584#4 -12695650#1 -12695650#0 -237921040 -59617619 -237921036"/>
    </vehicle>
    <vehicle id="6" depart="6.06" departLane="best" departSpeed="max" type="trafficMix">
        <route edges="-1182936853 26202222#0"/>
    </vehicle>
    <vehicle id="7" depart="7.21" departLane="best" departSpeed="max" type="trafficMix">
        <route edges="-308681382#1 -202234068#2 -31971359#1 -31971359#0 -145057849#1 -145057849#0 -145057844 -202234343 -31971356 -202234344 59617619 237921040 12695649 12695650#1 59617584#2 180801664"/>
    </vehicle>
    <vehicle id="8" depart="7.40" departLane="best" departSpeed="max" type="trafficMix">
        <route edges="-202157703 893429999#1"/>
    </vehicle>
    <vehicle id="9" depart="9.08" departLane="best" departSpeed="max" type="trafficMix">
        <route edges="-180801664 -59617584#4 -12695650#1 -12695650#0 -237921040 -59617619 -281402235#1 -281402232"/>
    </vehicle>
    <vehicle id="10" depart="9.34" departLane="best" departSpeed="max" type="trafficMix">
        <route edges="-308681382#1 -202234068#2 -31971359#1 -31971359#0 -145057849#1 -145057849#0 -145057844 -202234343 -31971356 -202234344 59617619 237921040 12695649 12695650#1 59617584#2 180801664"/>
    </vehicle>
    <vehicle id="11" depart="9.83" departLane="best" departSpeed="max" type="trafficMix">
        <route edges="-81920369 -14811383#2 -202234068#2 -31971359#1 -31971359#0 -145057849#1 -145057849#0 -145057844 -202234343 -31971356 -202234344 -281402235#1 -281402232"/>
    </vehicle>
    <vehicle id="12" depart="10.46" departLane="best" departSpeed="max" type="trafficMix">
        <route edges="-180801664 -59617584#4 -12695650#1 -12695650#0 -237921040 -59617619 12695647 31971356 202234343 145057844 145057844.12 145057849#1 31971359#0 31971359#1 202234068#0 14811383#1 202234067"/>
    </vehicle>
    <vehicle id="13" depart="12.19" departLane="best" departSpeed="max" type="trafficMix">
        <route edges="-26202222#0 -26202222#0.41 -202157700#5 -202157700#2 -14811377 -84620353#2 -60761760#3 -60761760#2 -202234065#3 -202234065#0 -75642284#1 -30329931#2 -30329931#1 -202234068#2 -31971359#1 -31971359#0 -145057849#1 -145057849#0 -145057844 -202234343 -31971356 -202234344 -281402235#1 -281402232"/>
    </vehicle>
    <vehicle id="14" depart="14.13" departLane="best" departSpeed="max" type="trafficMix">
        <route edges="-180801664 -59617584#4 -12695650#1 -12695650#0 -237921040 -59617619 12695647 31971356 202234343 145057844 145057844.12 145057849#1 31971359#0 31971359#1 202234068#0 30329931#0 30329931#2 75642284#1 202234065#0 202234065#1 60761760#0 60761760#3 75642281 14811377 202157700#0 202157700#3 26202222#0"/>
    </vehicle>
    <vehicle id="15" depart="16.66" departLane="best" departSpeed="max" type="trafficMix">
        <route edges="-202157703 893429999#1"/>
    </vehicle>
    <vehicle id="16" depart="17.27" departLane="best" departSpeed="max" type="trafficMix">
        <route edges="-202157703 893429999#1"/>
    </vehicle>
    <vehicle id="17" depart="17.82" departLane="best" departSpeed="max" type="trafficMix">
        <route edges="-180801664 -59617584#4 -12695650#1 -12695650#0 -237921040 -59617619 -281402235#1 -281402232"/>
    </vehicle>
    <vehicle id="18" depart="21.91" departLane="best" departSpeed="max" type="trafficMix">
        <route edges="-202157703 893429999#1"/>
    </vehicle>
    <vehicle id="19" depart="22.62" departLane="best" departSpeed="max" type="trafficMix">
        <route edges="-203986456#0 -60761764#2 -202234065#3 -202234065#0 -75642284#1 -30329931#2 -30329931#1 14811383#1 202234067"/>
    </vehicle>
    <vehicle id="20" depart="23.13" departLane="best" departSpeed="max" type="trafficMix">
        <route edges="-81920369 -14811383#2 14811373#0"/>
    </vehicle>
    <vehicle id="21" depart="24.06" departLane="best" departSpeed="max" type="trafficMix">
        <route edges="237921036 237921036.41 59617619 237921040 12695649 12695650#1 59617584#2 180801664"/>
    </vehicle>
    <vehicle id="22" depart="24.32" departLane="best" departSpeed="max" type="trafficMix">
        <route edges="-180801664 -59617584#4 -12695650#1 -12695650#0 -237921040 -59617619 -237921036"/>
    </vehicle>
    <vehicle id="23" depart="25.73" departLane="best" departSpeed="max" type="trafficMix">
        <route edges="-25563346#2 13831317#0"/>
    </vehicle>
    <vehicle id="24" depart="28.16" departLane="best" departSpeed="max" type="trafficMix">
        <route edges="-202157703 893429999#1"/>
    </vehicle>
    <vehicle id="25" depart="28.96" departLane="best" departSpeed="max" type="trafficMix">
        <route edges="-1183449794 -84620353#2 -60761760#3 -60761760#2 -202234065#3 -202234065#0 -75642284#1 -30329931#2 -30329931#1 14811383#1 202234067"/>
    </vehicle>
    <vehicle id="26" depart="30.07" departLane="best" departSpeed="max" type="trafficMix">
        <route edges="237921036 237921036.41 -281402235#1 -281402232"/>
    </vehicle>
    <vehicle id="27" depart="30.58" departLane="best" departSpeed="max" type="trafficMix">
        <route edges="-308681382#1 -202234068#2 -31971359#1 -31971359#0 -145057849#1 -145057849#0 -145057844 -202234343 -31971356 -202234344 59617619 237921040 12695649 12695650#1 59617584#2 180801664"/>
    </vehicle>
    <vehicle id="28" depart="30.67" departLane="best" departSpeed="max" type="trafficMix">
        <route edges="-180801664 -59617584#4 -12695650#1 -12695650#0 -237921040 -59617619 12695647 31971356 202234343 145057844 145057844.12 145057849#1 31971359#0 31971359#1 202234068#0 14811383#1 202234067"/>
    </vehicle>
    <vehicle id="29" depart="30.78" departLane="best" departSpeed="max" type="trafficMix">
        <route edges="237921036 237921036.41 59617619 237921040 12695649 12695650#1 59617584#2 180801664"/>
    </vehicle>
    <vehicle id="30" depart="31.69" departLane="best" departSpeed="max" type="trafficMix">
        <route edges="-180801664 -59617584#4 -12695650#1 -12695650#0 -237921040 -59617619 -281402235#1 -281402232"/>
    </vehicle>
    <vehicle id="31" depart="32.14" departLane="best" departSpeed="max" type="trafficMix">
        <route edges="-308681382#1 -202234068#2 -31971359#1 -31971359#0 -145057849#1 -145057849#0 -145057844 -202234343 -31971356 -202234344 59617619 237921040 12695649 12695650#1 59617584#2 180801664"/>
    </vehicle>
    <vehicle id="32" depart="33.00" departLane="best" departSpeed="max" type="trafficMix">
        <route edges="-180801664 -59617584#4 -12695650#1 -12695650#0 -237921040 -59617619 -281402235#1 -281402232"/>
    </vehicle>
    <vehicle id="33" depart="33.26" departLane="best" departSpeed="max" type="trafficMix">
        <route edges="-81920369 -14811383#2 30329931#0 30329931#2 75642284#1 202234065#0 202234065#1 60761760#0 60761760#3 75642281 14811377 202157700#0 202157700#3 12528053#0"/>
    </vehicle>
    <vehicle id="34" depart="34.95" departLane="best" departSpeed="max" type="trafficMix">
        <route edges="-26202222#0 -26202222#0.41 -202157700#5 -202157700#2 -14811377 -84620353#2 -60761760#3 -60761760#2 -202234065#3 -202234065#0 -75642284#1 -30329931#2 -30329931#1 -202234068#2 -31971359#1 -31971359#0 -145057849#1 -145057849#0 -145057844 -202234343 -31971356 -202234344 -281402235#1 -281402232"/>
    </vehicle>
    <vehicle id="35" depart="35.84" departLane="best" departSpeed="max" type="trafficMix">
        <route edges="-180801664 -59617584#4 -12695650#1 -12695650#0 -237921040 -59617619 12695647 31971356 202234343 145057844 145057844.12 145057849#1 31971359#0 31971359#1 202234068#0 14811383#1 202234067"/>
    </vehicle>
    <vehicle id="36" depart="36.27" departLane="best" departSpeed="max" type="trafficMix">
        <route edges="-308681382#1 -202234068#2 -31971359#1 -31971359#0 -145057849#1 -145057849#0 -145057844 -202234343 -31971356 -202234344 59617619 237921040 12695649 12695650#1 59617584#2 180801664"/>
    </vehicle>
    <vehicle id="37" depart="39.18" departLane="best" departSpeed="max" type="trafficMix">
        <route edges="-1182936853 26202222#0"/>
    </vehicle>
    <vehicle id="38" depart="39.50" departLane="best" departSpeed="max" type="trafficMix">
        <route edges="-308681382#1 -202234068#2 -31971359#1 -31971359#0 -145057849#1 -145057849#0 -145057844 -202234343 -31971356 -202234344 59617619 237921040 12695649 12695650#1 59617584#2 180801664"/>
    </vehicle>
    <vehicle id="39" depart="42.95" departLane="best" departSpeed="max" type="trafficMix">
        <route edges="237921036 237921036.41 59617619 237921040 12695649 12695650#1 59617584#2 180801664"/>
    </vehicle>
    <vehicle id="40" depart="43.59" departLane="best" departSpeed="max" type="trafficMix">
        <route edges="-180801664 -59617584#4 -12695650#1 -12695650#0 -237921040 -59617619 -237921036"/>
    </vehicle>
    <vehicle id="41" depart="45.05" departLane="best" departSpeed="max" type="trafficMix">
        <route edges="-81920369 -14811383#2 308681382#0"/>
    </vehicle>
    <vehicle id="42" depart="45.41" departLane="best" departSpeed="max" type="trafficMix">
        <route edges="-81920369 -14811383#2 -202234068#2 -31971359#1 -31971359#0 -145057849#1 -145057849#0 -145057844 -202234343 -31971356 -202234344 -281402235#1 -281402232"/>
    </vehicle>
    <vehicle id="43" depart="45.51" departLane="best" departSpeed="max" type="trafficMix">
        <route edges="237921036 237921036.41 -281402235#1 -281402232"/>
    </vehicle>
    <vehicle id="44" depart="47.22" departLane="best" departSpeed="max" type="trafficMix">
        <route edges="-308681382#1 -202234068#2 -31971359#1 -31971359#0 -145057849#1 -145057849#0 -145057844 -202234343 -31971356 -202234344 59617619 237921040 12695649 12695650#1 59617584#2 180801664"/>
    </vehicle>
    <vehicle id="45" depart="47.48" departLane="best" departSpeed="max" type="trafficMix">
        <route edges="-202157703 893429999#1"/>
    </vehicle>
    <vehicle id="46" depart="47.48" departLane="best" departSpeed="max" type="trafficMix">
        <route edges="-202157703 893429999#1"/>
    </vehicle>
    <vehicle id="47" depart="49.85" departLane="best" departSpeed="max" type="trafficMix">
        <route edges="-13831317#2 -13831317#2.34 -84620353#2 -60761760#3 -60761760#2 -202234065#3 -202234065#0 -75642284#1 -30329931#2 -30329931#1 14811383#1 202234067"/>
    </vehicle>
    <vehicle id="48" depart="51.66" departLane="best" departSpeed="max" type="trafficMix">
        <route edges="-202157703 -202157700#5 -202157700#2 -14811377 -84620353#2 -60761760#3 -60761760#2 -202234065#3 -202234065#0 -75642284#1 -30329931#2 -30329931#1 -202234068#2 -31971359#1 -31971359#0 -145057849#1 -145057849#0 -145057844 -202234343 -31971356 -202234344 -237921036"/>
    </vehicle>
    <vehicle id="49" depart="51.72" departLane="best" departSpeed="max" type="trafficMix">
        <route edges="-308681382#1 -202234068#2 -31971359#1 -31971359#0 -145057849#1 -145057849#0 -145057844 -202234343 -31971356 -202234344 59617619 237921040 12695649 12695650#1 59617584#2 180801664"/>
    </vehicle>
    <vehicle id="50" depart="53.63" departLane="best" departSpeed="max" type="trafficMix">
        <route edges="-1182936853 12528053#0"/>
    </vehicle>
    <vehicle id="51" depart="55.53" departLane="best" departSpeed="max" type="trafficMix">
        <route edges="-308681382#1 -202234068#2 -31971359#1 -31971359#0 -145057849#1 -145057849#0 -145057844 -202234343 -31971356 -202234344 59617619 237921040 12695649 12695650#1 59617584#2 180801664"/>
    </vehicle>
    <vehicle id="52" depart="56.68" departLane="best" departSpeed="max" type="trafficMix">
        <route edges="-180801664 -59617584#4 -12695650#1 -12695650#0 -237921040 -59617619 12695647 31971356 202234343 145057844 145057844.12 145057849#1 31971359#0 31971359#1 202234068#0 30329931#0 30329931#2 75642284#1 202234065#0 202234065#1 60761760#0 60761760#3 75642281 14811377 202157700#0 202157700#3 26202222#0"/>
    </vehicle>
    <vehicle id="53" depart="58.08" departLane="best" departSpeed="max" type="trafficMix">
        <route edges="-26202222#0 -26202222#0.41 -202157700#5 -202157700#2 -14811377 -84620353#2 -60761760#3 -60761760#2 -202234065#3 -202234065#0 -75642284#1 -30329931#2 -30329931#1 -202234068#2 -31971359#1 -31971359#0 -145057849#1 -145057849#0 -145057844 -202234343 -31971356 -202234344 -281402235#1 -281402232"/>
    </vehicle>
    <vehicle id="54" depart="59.63" departLane="best" departSpeed="max" type="trafficMix">
        <route edges="-180801664 -59617584#4 -12695650#1 -12695650#0 -237921040 -59617619 12695647 31971356 202234343 145057844 145057844.12 145057849#1 31971359#0 31971359#1 202234068#0 14811383#1 202234067"/>
    </vehicle>
    <vehicle id="55" depart="60.15" departLane="best" departSpeed="max" type="trafficMix">
        <route edges="-180801664 -59617584#4 -12695650#1 -12695650#0 -237921040 -59617619 -237921036"/>
    </vehicle>
    <vehicle id="56" depart="60.81" departLane="best" departSpeed="max" type="trafficMix">
        <route edges="237921036 237921036.41 59617619 237921040 12695649 12695650#1 59617584#2 180801664"/>
    </vehicle>
    <vehicle id="57" depart="61.35" departLane="best" departSpeed="max" type="trafficMix">
        <route edges="237921036 237921036.41 -281402235#1 -281402232"/>
    </vehicle>
    <vehicle id="58" depart="61.48" departLane="best" departSpeed="max" type="trafficMix">
        <route edges="-180801664 -59617584#4 -12695650#1 -12695650#0 -237921040 -59617619 12695647 31971356 202234343 145057844 145057844.12 145057849#1 31971359#0 31971359#1 202234068#0 308681382#0"/>
    </vehicle>
    <vehicle id="59" depart="61.64" departLane="best" departSpeed="max" type="trafficMix">
        <route edges="-1182936853 26202222#0"/>
    </vehicle>
    <vehicle id="60" depart="64.49" departLane="best" departSpeed="max" type="trafficMix">
        <route edges="-26202222#0 -26202222#0.41 -202157700#5 -202157700#2 -14811377 -84620353#2 -60761760#3 -60761760#2 -202234065#3 -202234065#0 -75642284#1 -30329931#2 -30329931#1 -202234068#2 -31971359#1 -31971359#0 -145057849#1 -145057849#0 -145057844 -202234343 -31971356 -202234344 -281402235#1 -281402232"/>
    </vehicle>
    <vehicle id="61" depart="64.68" departLane="best" departSpeed="max" type="trafficMix">
        <route edges="-308681382#1 -202234068#2 -31971359#1 -31971359#0 -145057849#1 -145057849#0 -145057844 -202234343 -31971356 -202234344 59617619 237921040 12695649 12695650#1 59617584#2 180801664"/>
    </vehicle>
    <vehicle id="62" depart="64.72" departLane="best" departSpeed="max" type="trafficMix">
        <route edges="-81920369 -14811383#2 30329931#0 30329931#2 75642284#1 202234065#0 202234065#1 60761760#0 60761760#3 75642281 14811377 202157700#0 202157700#3 12528053#0"/>
    </vehicle>
    <vehicle id="63" depart="65.55" departLane="best" departSpeed="max" type="trafficMix">
        <route edges="-202157703 893429999#1"/>
    </vehicle>
    <vehicle id="64" depart="65.74" departLane="best" departSpeed="max" type="trafficMix">
        <route edges="-180801664 -59617584#4 -12695650#1 -12695650#0 -237921040 -59617619 -281402235#1 -281402232"/>
    </vehicle>
    <vehicle id="65" depart="65.83" departLane="best" departSpeed="max" type="trafficMix">
        <route edges="-13831317#2 -13831317#2.34 -84620353#2 -60761760#3 -60761760#2 -202234065#3 -202234065#0 -75642284#1 -30329931#2 -30329931#1 14811383#1 202234067"/>
    </vehicle>
    <vehicle id="66" depart="65.91" departLane="best" departSpeed="max" type="trafficMix">
        <route edges="-180801664 -59617584#4 -12695650#1 -12695650#0 -237921040 -59617619 -237921036"/>
    </vehicle>
    <vehicle id="67" depart="68.30" departLane="best" departSpeed="max" type="trafficMix">
        <route edges="-202157703 893429999#1"/>
    </vehicle>
    <vehicle id="68" depart="68.90" departLane="best" departSpeed="max" type="trafficMix">
        <route edges="237921036 237921036.41 12695647 31971356 202234343 145057844 145057844.12 145057849#1 31971359#0 31971359#1 202234068#0 30329931#0 30329931#2 75642284#1 202234065#0 202234065#1 60761760#0 60761760#3 75642281 14811377 202157700#0 202157700#3 12528053#0"/>
    </vehicle>
    <vehicle id="69" depart="69.79" departLane="best" departSpeed="max" type="trafficMix">
        <route edges="237921036 237921036.41 59617619 237921040 12695649 12695650#1 59617584#2 180801664"/>
    </vehicle>
    <vehicle id="70" depart="70.63" departLane="best" departSpeed="max" type="trafficMix">
        <route edges="-26202222#0 -26202222#0.41 -202157700#5 -202157700#2 -14811377 -84620353#2 -60761760#3 -60761760#2 -202234065#3 -202234065#0 -75642284#1 -30329931#2 -30329931#1 -202234068#2 -31971359#1 -31971359#0 -145057849#1 -145057849#0 -145057844 -202234343 -31971356 -202234344 59617619 237921040 12695649 12695650#1 59617584#2 180801664"/>
    </vehicle>
    <vehicle id="71" depart="70.84" departLane="best" departSpeed="max" type="trafficMix">
        <route edges="-308681382#1 -202234068#2 -31971359#1 -31971359#0 -145057849#1 -145057849#0 -145057844 -202234343 -31971356 -202234344 59617619 237921040 12695649 12695650#1 59617584#2 180801664"/>
    </vehicle>
    <vehicle id="72" depart="71.16" departLane="best" departSpeed="max" type="trafficMix">
        <route edges="-26202222#0 -26202222#0.41 -202157700#5 -202157700#2 -14811377 -84620353#2 -60761760#3 -60761760#2 -202234065#3 -202234065#0 -75642284#1 -30329931#2 -30329931#1 14811373#0"/>
    </vehicle>
    <vehicle id="73" depart="71.20" departLane="best" departSpeed="max" type="trafficMix">
        <route edges="237921036 237921036.41 59617619 237921040 12695649 12695650#1 59617584#2 180801664"/>
    </vehicle>
    <vehicle id="74" depart="71.33" departLane="best" departSpeed="max" type="trafficMix">
        <route edges="-1182936853 26202222#0"/>
    </vehicle>
    <vehicle id="75" depart="71.64" departLane="best" departSpeed="max" type="trafficMix">
        <route edges="-26202222#0 -26202222#0.41 -202157700#5 -202157700#2 -14811377 -84620353#2 -60761760#3 -60761760#2 -202234065#3 -202234065#0 -75642284#1 -30329931#2 -30329931#1 14811373#0"/>
    </vehicle>
    <vehicle id="76" depart="72.28" departLane="best" departSpeed="max" type="trafficMix">
        <route edges="-202157703 893429999#1"/>
    </vehicle>
    <vehicle id="77" depart="74.97" departLane="best" departSpeed="max" type="trafficMix">
        <route edges="-308681382#1 -202234068#2 -31971359#1 -31971359#0 -145057849#1 -145057849#0 -145057844 -202234343 -31971356 -202234344 59617619 237921040 12695649 12695650#1 59617584#2 180801664"/>
    </vehicle>
    <vehicle id="78" depart="75.04" departLane="best" departSpeed="max" type="trafficMix">
        <route edges="-180801664 -59617584#4 -12695650#1 -12695650#0 -237921040 -59617619 12695647 31971356 202234343 145057844 145057844.12 145057849#1 31971359#0 31971359#1 202234068#0 14811383#1 202234067"/>
    </vehicle>
    <vehicle id="79" depart="75.40" departLane="best" departSpeed="max" type="trafficMix">
        <route edges="-180801664 -59617584#4 -12695650#1 -12695650#0 -237921040 -59617619 -281402235#1 -281402232"/>
    </vehicle>
    <vehicle id="80" depart="77.17" departLane="best" departSpeed="max" type="trafficMix">
        <route edges="-180801664 -59617584#4 -12695650#1 -12695650#0 -237921040 -59617619 12695647 31971356 202234343 145057844 145057844.12 145057849#1 31971359#0 31971359#1 202234068#0 14811383#1 202234067"/>
    </vehicle>
    <vehicle id="81" depart="79.52" departLane="best" departSpeed="max" type="trafficMix">
        <route edges="-202157703 -202157700#5 -202157700#2 -14811377 -84620353#2 -60761760#3 -60761760#2 -202234065#3 -202234065#0 -75642284#1 -30329931#2 -30329931#1 -202234068#2 -31971359#1 -31971359#0 -145057849#1 -145057849#0 -145057844 -202234343 -31971356 -202234344 -237921036"/>
    </vehicle>
    <vehicle id="82" depart="79.71" departLane="best" departSpeed="max" type="trafficMix">
        <route edges="-202157703 893429999#1"/>
    </vehicle>
    <vehicle id="83" depart="82.24" departLane="best" departSpeed="max" type="trafficMix">
        <route edges="-180801664 -59617584#4 -12695650#1 -12695650#0 -237921040 -59617619 -237921036"/>
    </vehicle>
    <vehicle id="84" depart="82.74" departLane="best" departSpeed="max" type="trafficMix">
        <route edges="-13831317#2 -13831317#2.34 -84620353#2 -60761760#3 -60761760#2 -202234065#3 -202234065#0 -75642284#1 -30329931#2 -30329931#1 14811383#1 202234067"/>
    </vehicle>
    <vehicle id="85" depart="83.39" departLane="best" departSpeed="max" type="trafficMix">
        <route edges="-203986456#0 -60761764#2 60761760#0 60761760#3 75642281 14811377 202157700#0 202157700#3 12528053#0"/>
    </vehicle>
    <vehicle id="86" depart="85.25" departLane="best" departSpeed="max" type="trafficMix">
        <route edges="-180801664 -59617584#4 -12695650#1 -12695650#0 -237921040 -59617619 -281402235#1 -281402232"/>
    </vehicle>
    <vehicle id="87" depart="85.95" departLane="best" departSpeed="max" type="trafficMix">
        <route edges="-202157703 -202157700#5 -202157700#2 -14811377 -84620353#2 -60761760#3 -60761760#2 -202234065#3 -202234065#0 -75642284#1 -30329931#2 -30329931#1 -202234068#2 -31971359#1 -31971359#0 -145057849#1 -145057849#0 -145057844 -202234343 -31971356 -202234344 -237921036"/>
    </vehicle>
    <vehicle id="88" depart="86.26" departLane="best" departSpeed="max" type="trafficMix">
        <route edges="-1182936853 12528053#0"/>
    </vehicle>
    <vehicle id="89" depart="87.52" departLane="best" departSpeed="max" type="trafficMix">
        <route edges="-81920369 -14811383#2 30329931#0 30329931#2 75642284#1 202234065#0 202234065#1 60761760#0 60761760#3 75642281 14811377 202157700#0 202157700#3 12528053#0"/>
    </vehicle>
    <vehicle id="90" depart="89.08" departLane="best" departSpeed="max" type="trafficMix">
        <route edges="-180801664 -59617584#4 -12695650#1 -12695650#0 -237921040 -59617619 -281402235#1 -281402232"/>
    </vehicle>
    <vehicle id="91" depart="90.10" departLane="best" departSpeed="max" type="trafficMix">
        <route edges="237921036 237921036.41 59617619 237921040 12695649 12695650#1 59617584#2 180801664"/>
    </vehicle>
    <vehicle id="92" depart="92.34" departLane="best" departSpeed="max" type="trafficMix">
        <route edges="-202157703 893429999#1"/>
    </vehicle>
    <vehicle id="93" depart="93.02" departLane="best" departSpeed="max" type="trafficMix">
        <route edges="-81920369 -14811383#2 30329931#0 30329931#2 75642284#1 202234065#0 202234065#1 60761760#0 60761760#3 75642281 14811377 202157700#0 202157700#3 12528053#0"/>
    </vehicle>
    <vehicle id="94" depart="93.41" departLane="best" departSpeed="max" type="trafficMix">
        <route edges="-180801664 -59617584#4 -12695650#1 -12695650#0 -237921040 -59617619 12695647 31971356 202234343 145057844 145057844.12 145057849#1 31971359#0 31971359#1 202234068#0 308681382#0"/>
    </vehicle>
    <vehicle id="95" depart="94.59" departLane="best" departSpeed="max" type="trafficMix">
        <route edges="-1182936853 12528053#0"/>
    </vehicle>
    <vehicle id="96" depart="97.41" departLane="best" departSpeed="max" type="trafficMix">
        <route edges="-1183449794 -84620353#2 -60761760#3 -60761760#2 -202234065#3 -202234065#0 -75642284#1 -30329931#2 -30329931#1 14811383#1 202234067"/>
    </vehicle>
    <vehicle id="97" depart="97.65" departLane="best" departSpeed="max" type="trafficMix">
        <route edges="237921036 237921036.41 59617619 237921040 12695649 12695650#1 59617584#2 180801664"/>
    </vehicle>
    <vehicle id="98" depart="99.39" departLane="best" departSpeed="max" type="trafficMix">
        <route edges="-180801664 -59617584#4 -12695650#1 -12695650#0 -237921040 -59617619 -237921036"/>
    </vehicle>
    <vehicle id="99" depart="99.64" departLane="best" departSpeed="max" type="trafficMix">
        <route edges="237921036 237921036.41 59617619 237921040 12695649 12695650#1 59617584#2 180801664"/>
    </vehicle>
    <vehicle id="100" depart="99.98" departLane="best" departSpeed="max" type="trafficMix">
        <route edges="-180801664 -59617584#4 -12695650#1 -12695650#0 -237921040 -59617619 -237921036"/>
    </vehicle>
    <vehicle id="101" depart="105.90" departLane="best" departSpeed="max" type="trafficMix">
        <route edges="237921036 237921036.41 59617619 237921040 12695649 12695650#1 59617584#2 180801664"/>
    </vehicle>
    <vehicle id="102" depart="106.16" departLane="best" departSpeed="max" type="trafficMix">
        <route edges="-1182936853 12528053#0"/>
    </vehicle>
    <vehicle id="103" depart="108.19" departLane="best" departSpeed="max" type="trafficMix">
        <route edges="-13831317#2 -13831317#2.34 -84620353#2 -60761760#3 -60761760#2 -202234065#3 -202234065#0 -75642284#1 -30329931#2 -30329931#1 14811383#1 202234067"/>
    </vehicle>
    <vehicle id="104" depart="108.50" departLane="best" departSpeed="max" type="trafficMix">
        <route edges="-26202222#0 -26202222#0.41 -202157700#5 -202157700#2 -14811377 -84620353#2 -60761760#3 -60761760#2 -202234065#3 -202234065#0 -75642284#1 -30329931#2 -30329931#1 -202234068#2 -31971359#1 -31971359#0 -145057849#1 -145057849#0 -145057844 -202234343 -31971356 -202234344 -281402235#1 -281402232"/>
    </vehicle>
    <vehicle id="105" depart="110.78" departLane="best" departSpeed="max" type="trafficMix">
        <route edges="-26202222#0 -26202222#0.41 -202157700#5 -202157700#2 -14811377 -84620353#2 -60761760#3 -60761760#2 -202234065#3 -202234065#0 -75642284#1 -30329931#2 -30329931#1 14811383#1 202234067"/>
    </vehicle>
    <vehicle id="106" depart="111.01" departLane="best" departSpeed="max" type="trafficMix">
        <route edges="-308681382#1 -202234068#2 -31971359#1 -31971359#0 -145057849#1 -145057849#0 -145057844 -202234343 -31971356 -202234344 59617619 237921040 12695649 12695650#1 59617584#2 180801664"/>
    </vehicle>
    <vehicle id="107" depart="111.08" departLane="best" departSpeed="max" type="trafficMix">
        <route edges="-180801664 -59617584#4 -12695650#1 -12695650#0 -237921040 -59617619 12695647 31971356 202234343 145057844 145057844.12 145057849#1 31971359#0 31971359#1 202234068#0 30329931#0 30329931#2 75642284#1 202234065#0 202234065#1 60761760#0 60761760#3 75642281 14811377 202157700#0 202157700#3 26202222#0"/>
    </vehicle>
    <vehicle id="108" depart="111.44" departLane="best" departSpeed="max" type="trafficMix">
        <route edges="-308681382#1 -202234068#2 -31971359#1 -31971359#0 -145057849#1 -145057849#0 -145057844 -202234343 -31971356 -202234344 59617619 237921040 12695649 12695650#1 59617584#2 180801664"/>
    </vehicle>
    <vehicle id="109" depart="112.35" departLane="best" departSpeed="max" type="trafficMix">
        <route edges="-81920369 -14811383#2 308681382#0"/>
    </vehicle>
    <vehicle id="110" depart="112.43" departLane="best" departSpeed="max" type="trafficMix">
        <route edges="-308681382#1 -202234068#2 -31971359#1 -31971359#0 -145057849#1 -145057849#0 -145057844 -202234343 -31971356 -202234344 59617619 237921040 12695649 12695650#1 59617584#2 180801664"/>
    </vehicle>
    <vehicle id="111" depart="113.57" departLane="best" departSpeed="max" type="trafficMix">
        <route edges="-180801664 -59617584#4 -12695650#1 -12695650#0 -237921040 -59617619 -237921036"/>
    </vehicle>
    <vehicle id="112" depart="115.06" departLane="best" departSpeed="max" type="trafficMix">
        <route edges="-180801664 -59617584#4 -12695650#1 -12695650#0 -237921040 -59617619 12695647 31971356 202234343 145057844 145057844.12 145057849#1 31971359#0 31971359#1 202234068#0 30329931#0 30329931#2 75642284#1 202234065#0 202234065#1 60761760#0 60761760#3 75642281 14811377 202157700#0 202157700#3 26202222#0"/>
    </vehicle>
    <vehicle id="113" depart="116.14" departLane="best" departSpeed="max" type="trafficMix">
        <route edges="-180801664 -59617584#4 -12695650#1 -12695650#0 -237921040 -59617619 12695647 31971356 202234343 145057844 145057844.12 145057849#1 31971359#0 31971359#1 202234068#0 14811383#1 202234067"/>
    </vehicle>
    <vehicle id="114" depart="116.53" departLane="best" departSpeed="max" type="trafficMix">