<?xml version='1.0' encoding='utf-8'?>
<routes>
    <vehicle id="cand_0" depart="0.00" type="trafficMix">
        <route edges="-1182936853 12528053#0" />
    </vehicle>
    <vehicle id="cand_1" depart="0.10" type="trafficMix">
        <route edges="-1182936853 26202222#0" />
    </vehicle>
    <vehicle id="cand_2" depart="0.20" type="trafficMix">
        <route edges="-1183449794 -84620353#2 -60761760#3 -60761760#2 -202234065#3 -202234065#0 -75642284#1 -30329931#2 -30329931#1 -202234068#2 -31971359#1 -31971359#0 -145057849#1 -145057849#0 -145057844 -202234343 -31971356 -202234344 -237921036" />
    </vehicle>
    <vehicle id="cand_3" depart="0.30" type="trafficMix">
        <route edges="-1183449794 -84620353#2 -60761760#3 -60761760#2 -202234065#3 -202234065#0 -75642284#1 -30329931#2 -30329931#1 -202234068#2 -31971359#1 -31971359#0 -145057849#1 -145057849#0 -145057844 -202234343 -31971356 -202234344 -281402235#1 -281402232" />
    </vehicle>
    <vehicle id="cand_4" depart="0.40" type="trafficMix">
        <route edges="-1183449794 -84620353#2 -60761760#3 -60761760#2 -202234065#3 -202234065#0 -75642284#1 -30329931#2 -30329931#1 -202234068#2 -31971359#1 -31971359#0 -145057849#1 -145057849#0 -145057844 -202234343 -31971356 -202234344 59617619 237921040 12695649 12695650#1 59617584#2 180801664" />
    </vehicle>
    <vehicle id="cand_5" depart="0.50" type="trafficMix">
        <route edges="-1183449794 -84620353#2 -60761760#3 -60761760#2 -202234065#3 -202234065#0 -75642284#1 -30329931#2 -30329931#1 -202234068#2 -31971359#1 -31971359#0 -145057849#1 -145057849#0 -145057844 -202234343 -31971356 240266960 189315784#0" />
    </vehicle>
    <vehicle id="cand_6" depart="0.60" type="trafficMix">
        <route edges="-1183449794 -84620353#2 -60761760#3 -60761760#2 -202234065#3 -202234065#0 -75642284#1 -30329931#2 -30329931#1 -202234068#2 -31971359#1 -31971359#0 -22293947" />
    </vehicle>
    <vehicle id="cand_7" depart="0.70" type="trafficMix">
        <route edges="-1183449794 -84620353#2 -60761760#3 -60761760#2 -202234065#3 -202234065#0 -75642284#1 -30329931#2 -30329931#1 -202234068#2 14811364#0" />
    </vehicle>
    <vehicle id="cand_8" depart="0.80" type="trafficMix">
        <route edges="-1183449794 -84620353#2 -60761760#3 -60761760#2 -202234065#3 -202234065#0 -75642284#1 -30329931#2 -30329931#1 14811373#0" />
    </vehicle>
    <vehicle id="cand_9" depart="0.90" type="trafficMix">
        <route edges="-1183449794 -84620353#2 -60761760#3 -60761760#2 -202234065#3 -202234065#0 -75642284#1 -30329931#2 -30329931#1 14811383#1 202234067" />
    </vehicle>
    <vehicle id="cand_10" depart="1.00" type="trafficMix">
        <route edges="-1183449794 -84620353#2 -60761760#3 -60761760#2 -202234065#3 -202234065#0 -75642284#1 -30329931#2 -30329931#1 308681382#0" />
    </vehicle>
    <vehicle id="cand_11" depart="1.10" type="trafficMix">
        <route edges="-1183449794 13831317#0" />
    </vehicle>
    <vehicle id="cand_12" depart="1.20" type="trafficMix">
        <route edges="-1183449794 14811377 202157700#0 202157700#3 12528053#0" />
    </vehicle>
    <vehicle id="cand_13" depart="1.30" type="trafficMix">
        <route edges="-1183449794 14811377 202157700#0 202157700#3 26202222#0" />
    </vehicle>
    <vehicle id="cand_14" depart="1.40" type="trafficMix">
        <route edges="-1183449794 14811377 202157700#0 202157700#3 893429999#1" />
    </vehicle>
    <vehicle id="cand_15" depart="1.50" type="trafficMix">
        <route edges="-1183449794 25563346#0" />
    </vehicle>
    <vehicle id="cand_16" depart="1.60" type="trafficMix">
        <route edges="-13831317#2 -13831317#2.34 -84620353#2 -60761760#3 -60761760#2 -202234065#3 -202234065#0 -75642284#1 -30329931#2 -30329931#1 -202234068#2 -31971359#1 -31971359#0 -145057849#1 -145057849#0 -145057844 -202234343 -31971356 -202234344 -237921036" />
    </vehicle>
    <vehicle id="cand_17" depart="1.70" type="trafficMix">
        <route edges="-13831317#2 -13831317#2.34 -84620353#2 -60761760#3 -60761760#2 -202234065#3 -202234065#0 -75642284#1 -30329931#2 -30329931#1 -202234068#2 -31971359#1 -31971359#0 -145057849#1 -145057849#0 -145057844 -202234343 -31971356 -202234344 -281402235#1 -281402232" />
    </vehicle>
    <vehicle id="cand_18" depart="1.80" type="trafficMix">
        <route edges="-13831317#2 -13831317#2.34 -84620353#2 -60761760#3 -60761760#2 -202234065#3 -202234065#0 -75642284#1 -30329931#2 -30329931#1 -202234068#2 -31971359#1 -31971359#0 -145057849#1 -145057849#0 -145057844 -202234343 -31971356 -202234344 59617619 237921040 12695649 12695650#1 59617584#2 180801664" />
    </vehicle>
    <vehicle id="cand_19" depart="1.90" type="trafficMix">
        <route edges="-13831317#2 -13831317#2.34 -84620353#2 -60761760#3 -60761760#2 -202234065#3 -202234065#0 -75642284#1 -30329931#2 -30329931#1 -202234068#2 -31971359#1 -31971359#0 -145057849#1 -145057849#0 -145057844 -202234343 -31971356 240266960 189315784#0" />
    </vehicle>
    <vehicle id="cand_20" depart="2.00" type="trafficMix">
        <route edges="-13831317#2 -13831317#2.34 -84620353#2 -60761760#3 -60761760#2 -202234065#3 -202234065#0 -75642284#1 -30329931#2 -30329931#1 -202234068#2 -31971359#1 -31971359#0 -22293947" />
    </vehicle>
    <vehicle id="cand_21" depart="2.10" type="trafficMix">
        <route edges="-13831317#2 -13831317#2.34 -84620353#2 -60761760#3 -60761760#2 -202234065#3 -202234065#0 -75642284#1 -30329931#2 -30329931#1 -202234068#2 14811364#0" />
    </vehicle>
    <vehicle id="cand_22" depart="2.20" type="trafficMix">
        <route edges="-13831317#2 -13831317#2.34 -84620353#2 -60761760#3 -60761760#2 -202234065#3 -202234065#0 -75642284#1 -30329931#2 -30329931#1 14811373#0" />
    </vehicle>
    <vehicle id="cand_23" depart="2.30" type="trafficMix">
        <route edges="-13831317#2 -13831317#2.34 -84620353#2 -60761760#3 -60761760#2 -202234065#3 -202234065#0 -75642284#1 -30329931#2 -30329931#1 14811383#1 202234067" />
    </vehicle>
    <vehicle id="cand_24" depart="2.40" type="trafficMix">
        <route edges="-13831317#2 -13831317#2.34 -84620353#2 -60761760#3 -60761760#2 -202234065#3 -202234065#0 -75642284#1 -30329931#2 -30329931#1 308681382#0" />
    </vehicle>
    <vehicle id="cand_25" depart="2.50" type="trafficMix">
        <route edges="-13831317#2 -13831317#2.34 14811377 202157700#0 202157700#3 12528053#0" />
    </vehicle>
    <vehicle id="cand_26" depart="2.60" type="trafficMix">
        <route edges="-13831317#2 -13831317#2.34 14811377 202157700#0 202157700#3 26202222#0" />
    </vehicle>
    <vehicle id="cand_27" depart="2.70" type="trafficMix">
        <route edges="-13831317#2 -13831317#2.34 14811377 202157700#0 202157700#3 893429999#1" />
    </vehicle>
    <vehicle id="cand_28" depart="2.80" type="trafficMix">
        <route edges="-13831317#2 -13831317#2.34 17707991#0" />
    </vehicle>
    <vehicle id="cand_29" depart="2.90" type="trafficMix">
        <route edges="-13831317#2 -13831317#2.34 25563346#0" />
    </vehicle>
    <vehicle id="cand_30" depart="3.00" type="trafficMix">
        <route edges="-14811364#0 202234068#0 14811383#1 202234067" />
    </vehicle>
    <vehicle id="cand_31" depart="3.10" type="trafficMix">
        <route edges="-14811364#0 202234068#0 30329931#0 30329931#2 75642284#1 202234065#0 202234065#1 60761760#0 60761760#3 75642281 13831317#0" />
    </vehicle>
    <vehicle id="cand_32" depart="3.20" type="trafficMix">
        <route edges="-14811364#0 202234068#0 30329931#0 30329931#2 75642284#1 202234065#0 202234065#1 60761760#0 60761760#3 75642281 14811377 202157700#0 202157700#3 12528053#0" />
    </vehicle>
    <vehicle id="cand_33" depart="3.30" type="trafficMix">
        <route edges="-14811364#0 202234068#0 30329931#0 30329931#2 75642284#1 202234065#0 202234065#1 60761760#0 60761760#3 75642281 14811377 202157700#0 202157700#3 26202222#0" />
    </vehicle>
    <vehicle id="cand_34" depart="3.40" type="trafficMix">
        <route edges="-14811364#0 202234068#0 30329931#0 30329931#2 75642284#1 202234065#0 202234065#1 60761760#0 60761760#3 75642281 14811377 202157700#0 202157700#3 893429999#1" />
    </vehicle>
    <vehicle id="cand_35" depart="3.50" type="trafficMix">
        <route edges="-14811364#0 202234068#0 30329931#0 30329931#2 75642284#1 202234065#0 202234065#1 60761760#0 60761760#3 75642281 25563346#0" />
    </vehicle>
    <vehicle id="cand_36" depart="3.60" type="trafficMix">
        <route edges="-14811364#0 202234068#0 308681382#0" />
    </vehicle>
    <vehicle id="cand_37" depart="3.70" type="trafficMix">
        <route edges="-14811373#0 -202234068#2 -31971359#1 -31971359#0 -145057849#1 -145057849#0 -145057844 -202234343 -31971356 -202234344 -237921036" />
    </vehicle>
    <vehicle id="cand_38" depart="3.80" type="trafficMix">
        <route edges="-14811373#0 -202234068#2 -31971359#1 -31971359#0 -145057849#1 -145057849#0 -145057844 -202234343 -31971356 -202234344 -281402235#1 -281402232" />
    </vehicle>
    <vehicle id="cand_39" depart="3.90" type="trafficMix">
        <route edges="-14811373#0 -202234068#2 -31971359#1 -31971359#0 -145057849#1 -145057849#0 -145057844 -202234343 -31971356 -202234344 59617619 237921040 12695649 12695650#1 59617584#2 180801664" />
    </vehicle>
    <vehicle id="cand_40" depart="4.00" type="trafficMix">
        <route edges="-14811373#0 -202234068#2 -31971359#1 -31971359#0 -145057849#1 -145057849#0 -145057844 -202234343 -31971356 240266960 189315784#0" />
    </vehicle>
    <vehicle id="cand_41" depart="4.10" type="trafficMix">
        <route edges="-14811373#0 -202234068#2 -31971359#1 -31971359#0 -22293947" />
    </vehicle>
    <vehicle id="cand_42" depart="4.20" type="trafficMix">
        <route edges="-14811373#0 -202234068#2 14811364#0" />
    </vehicle>
    <vehicle id="cand_43" depart="4.30" type="trafficMix">
        <route edges="-14811373#0 14811383#1 202234067" />
    </vehicle>
    <vehicle id="cand_44" depart="4.40" type="trafficMix">
        <route edges="-14811373#0 30329931#0 30329931#2 75642284#1 202234065#0 202234065#1 60761760#0 60761760#3 75642281 13831317#0" />
    </vehicle>
    <vehicle id="cand_45" depart="4.50" type="trafficMix">
        <route edges="-14811373#0 30329931#0 30329931#2 75642284#1 202234065#0 202234065#1 60761760#0 60761760#3 75642281 14811377 202157700#0 202157700#3 12528053#0" />
    </vehicle>
    <vehicle id="cand_46" depart="4.60" type="trafficMix">
        <route edges="-14811373#0 30329931#0 30329931#2 75642284#1 202234065#0 202234065#1 60761760#0 60761760#3 75642281 14811377 202157700#0 202157700#3 26202222#0" />
    </vehicle>
    <vehicle id="cand_47" depart="4.70" type="trafficMix">
        <route edges="-14811373#0 30329931#0 30329931#2 75642284#1 202234065#0 202234065#1 60761760#0 60761760#3 75642281 14811377 202157700#0 202157700#3 893429999#1" />
    </vehicle>
    <vehicle id="cand_48" depart="4.80" type="trafficMix">
        <route edges="-14811373#0 30329931#0 30329931#2 75642284#1 202234065#0 202234065#1 60761760#0 60761760#3 75642281 25563346#0" />
    </vehicle>
    <vehicle id="cand_49" depart="4.90" type="trafficMix">
        <route edges="-14811373#0 308681382#0" />
    </vehicle>
    <vehicle id="cand_50" depart="5.00" type="trafficMix">
        <route edges="-180801664 -59617584#4 -12695650#1 -12695650#0 -237921040 -59617619 -237921036" />
    </vehicle>
    <vehicle id="cand_51" depart="5.10" type="trafficMix">
        <route edges="-180801664 -59617584#4 -12695650#1 -12695650#0 -237921040 -59617619 -281402235#1 -281402232" />
    </vehicle>
    <vehicle id="cand_52" depart="5.20" type="trafficMix">
        <route edges="-180801664 -59617584#4 -12695650#1 -12695650#0 -237921040 -59617619 12695647 31971356 202234343 145057844 145057844.12 145057849#1 -22293947" />
    </vehicle>
    <vehicle id="cand_53" depart="5.30" type="trafficMix">
        <route edges="-180801664 -59617584#4 -12695650#1 -12695650#0 -237921040 -59617619 12695647 31971356 202234343 145057844 145057844.12 145057849#1 31971359#0 31971359#1 14811364#0" />
    </vehicle>
    <vehicle id="cand_54" depart="5.40" type="trafficMix">
        <route edges="-180801664 -59617584#4 -12695650#1 -12695650#0 -237921040 -59617619 12695647 31971356 202234343 145057844 145057844.12 145057849#1 31971359#0 31971359#1 202234068#0 14811383#1 202234067" />
    </vehicle>
    <vehicle id="cand_55" depart="5.50" type="trafficMix">
        <route edges="-180801664 -59617584#4 -12695650#1 -12695650#0 -237921040 -59617619 12695647 31971356 202234343 145057844 145057844.12 145057849#1 31971359#0 31971359#1 202234068#0 30329931#0 30329931#2 75642284#1 202234065#0 202234065#1 60761760#0 60761760#3 75642281 13831317#0" />
    </vehicle>
    <vehicle id="cand_56" depart="5.60" type="trafficMix">
        <route edges="-180801664 -59617584#4 -12695650#1 -12695650#0 -237921040 -59617619 12695647 31971356 202234343 145057844 145057844.12 145057849#1 31971359#0 31971359#1 202234068#0 30329931#0 30329931#2 75642284#1 202234065#0 202234065#1 60761760#0 60761760#3 75642281 14811377 202157700#0 202157700#3 12528053#0" />
    </vehicle>
    <vehicle id="cand_57" depart="5.70" type="trafficMix">
        <route edges="-180801664 -59617584#4 -12695650#1 -12695650#0 -237921040 -59617619 12695647 31971356 202234343 145057844 145057844.12 145057849#1 31971359#0 31971359#1 202234068#0 30329931#0 30329931#2 75642284#1 202234065#0 202234065#1 60761760#0 60761760#3 75642281 14811377 202157700#0 202157700#3 26202222#0" />
    </vehicle>
    <vehicle id="cand_58" depart="5.80" type="trafficMix">
        <route edges="-180801664 -59617584#4 -12695650#1 -12695650#0 -237921040 -59617619 12695647 31971356 202234343 145057844 145057844.12 145057849#1 31971359#0 31971359#1 202234068#0 30329931#0 30329931#2 75642284#1 202234065#0 202234065#1 60761760#0 60761760#3 75642281 14811377 202157700#0 202157700#3 893429999#1" />
    </vehicle>
    <vehicle id="cand_59" depart="5.90" type="trafficMix">
        <route edges="-180801664 -59617584#4 -12695650#1 -12695650#0 -237921040 -59617619 12695647 31971356 202234343 145057844 145057844.12 145057849#1 31971359#0 31971359#1 202234068#0 30329931#0 30329931#2 75642284#1 202234065#0 202234065#1 60761760#0 60761760#3 75642281 25563346#0" />
    </vehicle>
    <vehicle id="cand_60" depart="6.00" type="trafficMix">
        <route edges="-180801664 -59617584#4 -12695650#1 -12695650#0 -237921040 -59617619 12695647 31971356 202234343 145057844 145057844.12 145057849#1 31971359#0 31971359#1 202234068#0 308681382#0" />
    </vehicle>
    <vehicle id="cand_61" depart="6.10" type="trafficMix">
        <route edges="-202157703 -202157700#5 -202157700#2 -14811377 -84620353#2 -60761760#3 -60761760#2 -202234065#3 -202234065#0 -75642284#1 -30329931#2 -30329931#1 -202234068#2 -31971359#1 -31971359#0 -145057849#1 -145057849#0 -145057844 -202234343 -31971356 -202234344 -237921036" />
    </vehicle>
    <vehicle id="cand_62" depart="6.20" type="trafficMix">
        <route edges="-202157703 -202157700#5 -202157700#2 -14811377 -84620353#2 -60761760#3 -60761760#2 -202234065#3 -202234065#0 -75642284#1 -30329931#2 -30329931#1 -202234068#2 -31971359#1 -31971359#0 -145057849#1 -145057849#0 -145057844 -202234343 -31971356 -202234344 -281402235#1 -281402232" />
    </vehicle>
    <vehicle id="cand_63" depart="6.30" type="trafficMix">
        <route edges="-202157703 -202157700#5 -202157700#2 -14811377 -84620353#2 -60761760#3 -60761760#2 -202234065#3 -202234065#0 -75642284#1 -30329931#2 -30329931#1 -202234068#2 -31971359#1 -31971359#0 -145057849#1 -145057849#0 -145057844 -202234343 -31971356 -202234344 59617619 237921040 12695649 12695650#1 59617584#2 180801664" />
    </vehicle>
    <vehicle id="cand_64" depart="6.40" type="trafficMix">
        <route edges="-202157703 -202157700#5 -202157700#2 -14811377 -84620353#2 -60761760#3 -60761760#2 -202234065#3 -202234065#0 -75642284#1 -30329931#2 -30329931#1 -202234068#2 -31971359#1 -31971359#0 -145057849#1 -145057849#0 -145057844 -202234343 -31971356 240266960 189315784#0" />
    </vehicle>
    <vehicle id="cand_65" depart="6.50" type="trafficMix">
        <route edges="-202157703 -202157700#5 -202157700#2 -14811377 -84620353#2 -60761760#3 -60761760#2 -202234065#3 -202234065#0 -75642284#1 -30329931#2 -30329931#1 -202234068#2 -31971359#1 -31971359#0 -22293947" />
    </vehicle>
    <vehicle id="cand_66" depart="6.60" type="trafficMix">
        <route edges="-202157703 -202157700#5 -202157700#2 -14811377 -84620353#2 -60761760#3 -60761760#2 -202234065#3 -202234065#0 -75642284#1 -30329931#2 -30329931#1 -202234068#2 14811364#0" />
    </vehicle>
    <vehicle id="cand_67" depart="6.70" type="trafficMix">
        <route edges="-202157703 -202157700#5 -202157700#2 -14811377 -84620353#2 -60761760#3 -60761760#2 -202234065#3 -202234065#0 -75642284#1 -30329931#2 -30329931#1 14811373#0" />
    </vehicle>
    <vehicle id="cand_68" depart="6.80" type="trafficMix">
        <route edges="-202157703 -202157700#5 -202157700#2 -14811377 -84620353#2 -60761760#3 -60761760#2 -202234065#3 -202234065#0 -75642284#1 -30329931#2 -30329931#1 14811383#1 202234067" />
    </vehicle>
    <vehicle id="cand_69" depart="6.90" type="trafficMix">
        <route edges="-202157703 -202157700#5 -202157700#2 -14811377 -84620353#2 -60761760#3 -60761760#2 -202234065#3 -202234065#0 -75642284#1 -30329931#2 -30329931#1 308681382#0" />
    </vehicle>
    <vehicle id="cand_70" depart="7.00" type="trafficMix">
        <route edges="-202157703 -202157700#5 -202157700#2 -14811377 17707991#0" />
    </vehicle>
    <vehicle id="cand_71" depart="7.10" type="trafficMix">
        <route edges="-202157703 893429999#1" />
    </vehicle>
    <vehicle id="cand_72" depart="7.20" type="trafficMix">
        <route edges="-203986456#0 -60761764#2 -202234065#3 -202234065#0 -75642284#1 -30329931#2 -30329931#1 -202234068#2 -31971359#1 -31971359#0 -145057849#1 -145057849#0 -145057844 -202234343 -31971356 -202234344 -237921036" />
    </vehicle>
    <vehicle id="cand_73" depart="7.30" type="trafficMix">
        <route edges="-203986456#0 -60761764#2 -202234065#3 -202234065#0 -75642284#1 -30329931#2 -30329931#1 -202234068#2 -31971359#1 -31971359#0 -145057849#1 -145057849#0 -145057844 -202234343 -31971356 -202234344 -281402235#1 -281402232" />
    </vehicle>
    <vehicle id="cand_74" depart="7.40" type="trafficMix">
        <route edges="-203986456#0 -60761764#2 -202234065#3 -202234065#0 -75642284#1 -30329931#2 -30329931#1 -202234068#2 -31971359#1 -31971359#0 -145057849#1 -145057849#0 -145057844 -202234343 -31971356 -202234344 59617619 237921040 12695649 12695650#1 59617584#2 180801664" />
    </vehicle>
    <vehicle id="cand_75" depart="7.50" type="trafficMix">
        <route edges="-203986456#0 -60761764#2 -202234065#3 -202234065#0 -75642284#1 -30329931#2 -30329931#1 -202234068#2 -31971359#1 -31971359#0 -145057849#1 -145057849#0 -145057844 -202234343 -31971356 240266960 189315784#0" />
    </vehicle>
    <vehicle id="cand_76" depart="7.60" type="trafficMix">
        <route edges="-203986456#0 -60761764#2 -202234065#3 -202234065#0 -75642284#1 -30329931#2 -30329931#1 -202234068#2 -31971359#1 -31971359#0 -22293947" />
    </vehicle>
    <vehicle id="cand_77" depart="7.70" type="trafficMix">
        <route edges="-203986456#0 -60761764#2 -202234065#3 -202234065#0 -75642284#1 -30329931#2 -30329931#1 -202234068#2 14811364#0" />
    </vehicle>
    <vehicle id="cand_78" depart="7.80" type="trafficMix">
        <route edges="-203986456#0 -60761764#2 -202234065#3 -202234065#0 -75642284#1 -30329931#2 -30329931#1 14811373#0" />
    </vehicle>
    <vehicle id="cand_79" depart="7.90" type="trafficMix">
        <route edges="-203986456#0 -60761764#2 -202234065#3 -202234065#0 -75642284#1 -30329931#2 -30329931#1 14811383#1 202234067" />
    </vehicle>
    <vehicle id="cand_80" depart="8.00" type="trafficMix">
        <route edges="-203986456#0 -60761764#2 -202234065#3 -202234065#0 -75642284#1 -30329931#2 -30329931#1 308681382#0" />
    </vehicle>
    <vehicle id="cand_81" depart="8.10" type="trafficMix">
        <route edges="-203986456#0 -60761764#2 60761760#0 60761760#3 75642281 13831317#0" />
    </vehicle>
    <vehicle id="cand_82" depart="8.20" type="trafficMix">
        <route edges="-203986456#0 -60761764#2 60761760#0 60761760#3 75642281 14811377 202157700#0 202157700#3 12528053#0" />
    </vehicle>
    <vehicle id="cand_83" depart="8.30" type="trafficMix">
        <route edges="-203986456#0 -60761764#2 60761760#0 60761760#3 75642281 14811377 202157700#0 202157700#3 26202222#0" />
    </vehicle>
    <vehicle id="cand_84" depart="8.40" type="trafficMix">
        <route edges="-203986456#0 -60761764#2 60761760#0 60761760#3 75642281 14811377 202157700#0 202157700#3 893429999#1" />
    </vehicle>
    <vehicle id="cand_85" depart="8.50" type="trafficMix">
        <route edges="-203986456#0 -60761764#2 60761760#0 60761760#3 75642281 25563346#0" />
    </vehicle>
    <vehicle id="cand_86" depart="8.60" type="trafficMix">
        <route edges="-25563346#2 13831317#0" />
    </vehicle>
    <vehicle id="cand_87" depart="8.70" type="trafficMix">
        <route edges="-26202222#0 -26202222#0.41 -202157700#5 -202157700#2 -14811377 -84620353#2 -60761760#3 -60761760#2 -202234065#3 -202234065#0 -75642284#1 -30329931#2 -30329931#1 -202234068#2 -31971359#1 -31971359#0 -145057849#1 -145057849#0 -145057844 -202234343 -31971356 -202234344 -237921036" />
    </vehicle>
    <vehicle id="cand_88" depart="8.80" type="trafficMix">
        <route edges="-26202222#0 -26202222#0.41 -202157700#5 -202157700#2 -14811377 -84620353#2 -60761760#3 -60761760#2 -202234065#3 -202234065#0 -75642284#1 -30329931#2 -30329931#1 -202234068#2 -31971359#1 -31971359#0 -145057849#1 -145057849#0 -145057844 -202234343 -31971356 -202234344 -281402235#1 -281402232" />
    </vehicle>
    <vehicle id="cand_89" depart="8.90" type="trafficMix">
        <route edges="-26202222#0 -26202222#0.41 -202157700#5 -202157700#2 -14811377 -84620353#2 -60761760#3 -60761760#2 -202234065#3 -202234065#0 -75642284#1 -30329931#2 -30329931#1 -202234068#2 -31971359#1 -31971359#0 -145057849#1 -145057849#0 -145057844 -202234343 -31971356 -202234344 59617619 237921040 12695649 12695650#1 59617584#2 180801664" />
    </vehicle>
    <vehicle id="cand_90" depart="9.00" type="trafficMix">
        <route edges="-26202222#0 -26202222#0.41 -202157700#5 -202157700#2 -14811377 -84620353#2 -60761760#3 -60761760#2 -202234065#3 -202234065#0 -75642284#1 -30329931#2 -30329931#1 -202234068#2 -31971359#1 -31971359#0 -145057849#1 -145057849#0 -145057844 -202234343 -31971356 240266960 189315784#0" />
    </vehicle>
    <vehicle id="cand_91" depart="9.10" type="trafficMix">
        <route edges="-26202222#0 -26202222#0.41 -202157700#5 -202157700#2 -14811377 -84620353#2 -60761760#3 -60761760#2 -202234065#3 -202234065#0 -75642284#1 -30329931#2 -30329931#1 -202234068#2 -31971359#1 -31971359#0 -22293947" />
    </vehicle>
    <vehicle id="cand_92" depart="9.20" type="trafficMix">
        <route edges="-26202222#0 -26202222#0.41 -202157700#5 -202157700#2 -14811377 -84620353#2 -60761760#3 -60761760#2 -202234065#3 -202234065#0 -75642284#1 -30329931#2 -30329931#1 -202234068#2 14811364#0" />
    </vehicle>
    <vehicle id="cand_93" depart="9.30" type="trafficMix">
        <route edges="-26202222#0 -26202222#0.41 -202157700#5 -202157700#2 -14811377 -84620353#2 -60761760#3 -60761760#2 -202234065#3 -202234065#0 -75642284#1 -30329931#2 -30329931#1 14811373#0" />
    </vehicle>
    <vehicle id="cand_94" depart="9.40" type="trafficMix">
        <route edges="-26202222#0 -26202222#0.41 -202157700#5 -202157700#2 -14811377 -84620353#2 -60761760#3 -60761760#2 -202234065#3 -202234065#0 -75642284#1 -30329931#2 -30329931#1 14811383#1 202234067" />
    </vehicle>
    <vehicle id="cand_95" depart="9.50" type="trafficMix">
        <route edges="-26202222#0 -26202222#0.41 -202157700#5 -202157700#2 -14811377 -84620353#2 -60761760#3 -60761760#2 -202234065#3 -202234065#0 -75642284#1 -30329931#2 -30329931#1 308681382#0" />
    </vehicle>
    <vehicle id="cand_96" depart="9.60" type="trafficMix">
        <route edges="-26202222#0 -26202222#0.41 -202157700#5 -202157700#2 -14811377 17707991#0" />
    </vehicle>
    <vehicle id="cand_97" depart="9.70" type="trafficMix">
        <route edges="-26202222#0 -26202222#0.41 12528053#0" />
    </vehicle>
    <vehicle id="cand_98" depart="9.80" type="trafficMix">
        <route edges="-26202222#0 -26202222#0.41 893429999#1" />
    </vehicle>
    <vehicle id="cand_99" depart="9.90" type="trafficMix">
        <route edges="-308681382#1 -202234068#2 -31971359#1 -31971359#0 -145057849#1 -145057849#0 -145057844 -202234343 -31971356 -202234344 -237921036" />
    </vehicle>
    <vehicle id="cand_100" depart="10.00" type="trafficMix">
        <route edges="-308681382#1 -202234068#2 -31971359#1 -31971359#0 -145057849#1 -145057849#0 -145057844 -202234343 -31971356 -202234344 -281402235#1 -281402232" />
    </vehicle>
    <vehicle id="cand_101" depart="10.10" type="trafficMix">
        <route edges="-308681382#1 -202234068#2 -31971359#1 -31971359#0 -145057849#1 -145057849#0 -145057844 -202234343 -31971356 -202234344 59617619 237921040 12695649 12695650#1 59617584#2 180801664" />
    </vehicle>
    <vehicle id="cand_102" depart="10.20" type="trafficMix">
        <route edges="-308681382#1 -202234068#2 -31971359#1 -31971359#0 -145057849#1 -145057849#0 -145057844 -202234343 -31971356 240266960 189315784#0" />
    </vehicle>
    <vehicle id="cand_103" depart="10.30" type="trafficMix">
        <route edges="-308681382#1 -202234068#2 -31971359#1 -31971359#0 -22293947" />
    </vehicle>
    <vehicle id="cand_104" depart="10.40" type="trafficMix">
        <route edges="-308681382#1 -202234068#2 14811364#0" />
    </vehicle>
    <vehicle id="cand_105" depart="10.50" type="trafficMix">
        <route edges="-308681382#1 14811373#0" />
    </vehicle>
    <vehicle id="cand_106" depart="10.60" type="trafficMix">
        <route edges="-308681382#1 14811383#1 202234067" />
    </vehicle>
    <vehicle id="cand_107" depart="10.70" type="trafficMix">
        <route edges="-308681382#1 30329931#0 30329931#2 75642284#1 202234065#0 202234065#1 60761760#0 60761760#3 75642281 13831317#0" />
    </vehicle>
    <vehicle id="cand_108" depart="10.80" type="trafficMix">
        <route edges="-308681382#1 30329931#0 30329931#2 75642284#1 202234065#0 202234065#1 60761760#0 60761760#3 75642281 14811377 202157700#0 202157700#3 12528053#0" />
    </vehicle>
    <vehicle id="cand_109" depart="10.90" type="trafficMix">
        <route edges="-308681382#1 30329931#0 30329931#2 75642284#1 202234065#0 202234065#1 60761760#0 60761760#3 75642281 14811377 202157700#0 202157700#3 26202222#0" />
    </vehicle>
    <vehicle id="cand_110" depart="11.00" type="trafficMix">
        <route edges="-308681382#1 30329931#0 30329931#2 75642284#1 202234065#0 202234065#1 60761760#0 60761760#3 75642281 14811377 202157700#0 202157700#3 893429999#1" />
    </vehicle>
    <vehicle id="cand_111" depart="11.10" type="trafficMix">
        <route edges="-308681382#1 30329931#0 30329931#2 75642284#1 202234065#0 202234065#1 60761760#0 60761760#3 75642281 25563346#0" />
    </vehicle>
    <vehicle id="cand_112" depart="11.20" type="trafficMix">
        <route edges="-81920369 -14811383#2 -202234068#2 -31971359#1 -31971359#0 -145057849#1 -145057849#0 -145057844 -202234343 -31971356 -202234344 -237921036" />
    </vehicle>
    <vehicle id="cand_113" depart="11.30" type="trafficMix">
        <route edges="-81920369 -14811383#2 -202234068#2 -31971359#1 -31971359#0 -145057849#1 -145057849#0 -145057844 -202234343 -31971356 -202234344 -281402235#1 -281402232" />
    </vehicle>
    <vehicle id="cand_114" depart="11.40" type="trafficMix">
        <route edges="-81920369 -14811383#2 -202234068#2 -31971359#1 -31971359#0 -145057849#1 -145057849#0 -145057844 -202234343 -31971356 -202234344 59617619 237921040 12695649 12695650#1 59617584#2 180801664" />
    </vehicle>
    <vehicle id="cand_115" depart="11.50" type="trafficMix">
        <route edges="-81920369 -14811383#2 -202234068#2 -31971359#1 -31971359#0 -145057849#1 -145057849#0 -145057844 -202234343 -31971356 240266960 189315784#0" />
    </vehicle>
    <vehicle id="cand_116" depart="11.60" type="trafficMix">
        <route edges="-81920369 -14811383#2 -202234068#2 -31971359#1 -31971359#0 -22293947" />
    </vehicle>
    <vehicle id="cand_117" depart="11.70" type="trafficMix">
        <route edges="-81920369 -14811383#2 -202234068#2 14811364#0" />
    </vehicle>
    <vehicle id="cand_118" depart="11.80" type="trafficMix">
        <route edges="-81920369 -14811383#2 14811373#0" />
    </vehicle>
    <vehicle id="cand_119" depart="11.90" type="trafficMix">
        <route edges="-81920369 -14811383#2 30329931#0 30329931#2 75642284#1 202234065#0 202234065#1 60761760#0 60761760#3 75642281 13831317#0" />
    </vehicle>
    <vehicle id="cand_120" depart="12.00" type="trafficMix">
        <route edges="-81920369 -14811383#2 30329931#0 30329931#2 75642284#1 202234065#0 202234065#1 60761760#0 60761760#3 75642281 14811377 202157700#0 202157700#3 12528053#0" />
    </vehicle>
    <vehicle id="cand_121" depart="12.10" type="trafficMix">
        <route edges="-81920369 -14811383#2 30329931#0 30329931#2 75642284#1 202234065#0 202234065#1 60761760#0 60761760#3 75642281 14811377 202157700#0 202157700#3 26202222#0" />
    </vehicle>
    <vehicle id="cand_122" depart="12.20" type="trafficMix">
        <route edges="-81920369 -14811383#2 30329931#0 30329931#2 75642284#1 202234065#0 202234065#1 60761760#0 60761760#3 75642281 14811377 202157700#0 202157700#3 893429999#1" />
    </vehicle>
    <vehicle id="cand_123" depart="12.30" type="trafficMix">
        <route edges="-81920369 -14811383#2 30329931#0 30329931#2 75642284#1 202234065#0 202234065#1 60761760#0 60761760#3 75642281 25563346#0" />
    </vehicle>
    <vehicle id="cand_124" depart="12.40" type="trafficMix">