<nodes>
        <node id="start" x="0" y="0"/>
        <node id="ende" x="1000" y="0"/>
    </nodes>