<additional>
        <edgeData id="messung_stunde" file="capacity_output.xml" freq="3600"/>
    </additional>