<edges>
    <edge id="strasse" from="start" to="ende" numLanes="1" speed="13.89"/>
    </edges>