<?xml version='1.0' encoding='UTF-8'?>
<routes>
    <route id="r1" edges="-180801664 -59617584#4 -12695650#1 -12695650#0 -237921040 -59617619 12695647 31971356 202234343 145057844 145057844.12 145057849#1 31971359#0 31971359#1 202234068#0 30329931#0 30329931#2 75642284#1 202234065#0 202234065#1 -81920360#2 -51655434" />
    <route id="r2" edges="125964106 -202234343 -31971356 -202234344 59617619 237921040 12695649 12695650#1 59617584#2 180801664" />
    <route id="r3" edges="22293941 81920360#0 -202234065#3 -202234065#0 -75642284#1 -30329931#2 -30329931#1 -202234068#2 -31971359#1 -31971359#0 -22293947" />
    <route id="r4" edges="-202157703 -202157700#5 -202157700#2 -14811377 -84620353#2 -60761760#3 -60761760#2 -202234065#3 -202234065#0 -75642284#1 -30329931#2 -30329931#1 -202234068#2 -31971359#1 -31971359#0 -145057849#1 -145057849#0 -145057844 -202234343 -31971356 -202234344 -281402235#1 -281402232" />
    <route id="r5" edges="-1183449794 -84620353#2 -60761760#3 -60761760#2 -202234065#3 -202234065#0 -75642284#1 -30329931#2 -30329931#1 -202234068#2 -31971359#1 -31971359#0 -145057849#1 -145057849#0 -145057844 -202234343 -31971356 -202234344 -237921036" />
    <route id="r6" edges="-308681382#1 30329931#0 30329931#2 75642284#1 202234065#0 202234065#1 60761760#0 60761760#3 75642281 14811377 202157700#0 202157700#3 893429999#1" />
    <route id="r7" edges="-203986456#0 -60761764#2 -202234065#3 -202234065#0 -75642284#1 -30329931#2 -30329931#1 -202234068#2 -31971359#1 -31971359#0 -145057849#1 -145057849#0 -145057844 -202234343 -31971356 -202234344 59617619 237921040 12695649 12695650#1 59617584#2 180801664" />
    <route id="r8" edges="22293947 -145057849#1 -145057849#0 -145057844 -202234343 -31971356 -202234344 59617619 237921040 12695649 12695650#1 59617584#2 180801664" />
    <route id="r9" edges="-14811364#0 202234068#0 30329931#0 30329931#2 75642284#1 202234065#0 202234065#1 60761760#0 60761760#3 75642281 14811377 202157700#0 202157700#3 12528053#0" />
    <route id="r10" edges="-180801664 -59617584#4 -12695650#1 -12695650#0 -237921040 -59617619 12695647 31971356 202234343 145057844 145057844.12 145057849#1 31971359#0 31971359#1 202234068#0 308681382#0" />
    <route id="r11" edges="-13831317#2 -13831317#2.34 -84620353#2 -60761760#3 -60761760#2 -202234065#3 -202234065#0 -75642284#1 -30329931#2 -30329931#1 -202234068#2 14811364#0" />
    <route id="r12" edges="-14811364#0 202234068#0 30329931#0 30329931#2 75642284#1 202234065#0 202234065#1 60761760#0 60761760#3 75642281 14811377 202157700#0 202157700#3 893429999#1" />
    <route id="r13" edges="-180801664 -59617584#4 -12695650#1 -12695650#0 -237921040 -59617619 12695647 31971356 202234343 145057844 145057844.12 145057849#1 31971359#0 31971359#1 202234068#0 30329931#0 30329931#2 75642284#1 202234065#0 202234065#1 60761760#0 60761760#3 75642281 14811377 202157700#0 202157700#3 12528053#0" />
    <route id="r14" edges="-308681382#1 30329931#0 30329931#2 75642284#1 202234065#0 202234065#1 60761760#0 60761760#3 75642281 14811377 202157700#0 202157700#3 12528053#0" />
    <route id="r15" edges="-1183449794 -84620353#2 -60761760#3 -60761760#2 -202234065#3 -202234065#0 -75642284#1 -30329931#2 -30329931#1 -202234068#2 -31971359#1 -31971359#0 -22293947" />
    <route id="r16" edges="-1183449794 -84620353#2 -60761760#3 -60761760#2 -202234065#3 -202234065#0 -75642284#1 -30329931#2 -30329931#1 -202234068#2 -31971359#1 -31971359#0 -145057849#1 -145057849#0 -145057844 -202234343 -31971356 240266960 189315784#0" />
    <route id="r17" edges="-1183449794 -84620353#2 -60761760#3 -60761760#2 -202234065#3 -202234065#0 -75642284#1 -30329931#2 -30329931#1 -202234068#2 14811364#0" />
    <route id="r18" edges="-1183449794 -84620353#2 -60761760#3 -60761760#2 -202234065#3 -202234065#0 -75642284#1 -30329931#2 -30329931#1 14811373#0" />
    <route id="r19" edges="-26202222#0 -26202222#0.41 -202157700#5 -202157700#2 -14811377 -84620353#2 -60761760#3 -60761760#2 -81920360#2 -51655434" />
    <route id="r20" edges="237921036 237921036.41 12695647 31971356 202234343 145057844 145057844.12 145057849#1 31971359#0 31971359#1 202234068#0 30329931#0 30329931#2 75642284#1 202234065#0 202234065#1 60761760#0 60761760#3 75642281 14811377 202157700#0 202157700#3 26202222#0" />
    <route id="r21" edges="-202157703 -202157700#5 -202157700#2 -14811377 -84620353#2 -60761760#3 -60761760#2 -202234065#3 -202234065#0 -75642284#1 -30329931#2 -30329931#1 -202234068#2 -31971359#1 -31971359#0 -145057849#1 -145057849#0 -145057844 -202234343 -31971356 240266960 189315784#0" />
    <route id="r22" edges="-81920369 -14811383#2 -202234068#2 -31971359#1 -31971359#0 -145057849#1 -145057849#0 -145057844 -202234343 -31971356 -202234344 -281402235#1 -281402232" />
    <route id="r23" edges="145057839#2 -202234343 -31971356 -202234344 59617619 237921040 12695649 12695650#1 59617584#2 180801664" />
    <route id="r24" edges="22293941 81920360#0 -202234065#3 -202234065#0 -75642284#1 -30329931#2 -30329931#1 -202234068#2 -31971359#1 -31971359#0 -145057849#1 -145057849#0 -145057844 -202234343 -31971356 -202234344 59617619 237921040 12695649 12695650#1 59617584#2 180801664" />
    <route id="r25" edges="-202157703 -202157700#5 -202157700#2 -14811377 -84620353#2 -60761760#3 -60761760#2 -202234065#3 -202234065#0 -75642284#1 -30329931#2 -30329931#1 -202234068#2 -31971359#1 -31971359#0 -22293947" />
    <route id="r26" edges="22293941 81920360#0 -202234065#3 -202234065#0 -75642284#1 -30329931#2 -30329931#1 -202234068#2 -31971359#1 -31971359#0 -145057849#1 -145057849#0 -145057844 -202234343 -31971356 -202234344 -281402235#1 -281402232" />
    <route id="r27" edges="-26202222#0 -26202222#0.41 -202157700#5 -202157700#2 -14811377 -84620353#2 -60761760#3 -60761760#2 -202234065#3 -202234065#0 -75642284#1 -30329931#2 -30329931#1 -202234068#2 -31971359#1 -31971359#0 -145057849#1 -145057849#0 -145057844 -202234343 -31971356 -202234344 59617619 237921040 12695649 12695650#1 59617584#2 180801664" />
    <route id="r28" edges="-180801664 -59617584#4 -12695650#1 -12695650#0 -237921040 -59617619 12695647 31971356 202234343 145057844 145057844.12 145057849#1 31971359#0 31971359#1 202234068#0 30329931#0 30329931#2 75642284#1 202234065#0 202234065#1 60761760#0 60761760#3 75642281 14811377 202157700#0 202157700#3 26202222#0" />
    <route id="r29" edges="-14811364#0 202234068#0 30329931#0 30329931#2 75642284#1 202234065#0 202234065#1 60761760#0 60761760#3 75642281 13831317#0" />
    <route id="r30" edges="-14811364#0 202234068#0 30329931#0 30329931#2 75642284#1 202234065#0 202234065#1 -81920360#2 -51655434" />
    <route id="r31" edges="22293947 -145057849#1 -145057849#0 -145057844 -202234343 -31971356 -202234344 -237921036" />
    <route id="r32" edges="-180801664 -59617584#4 -12695650#1 -12695650#0 -237921040 -59617619 12695647 31971356 202234343 145057844 145057844.12 145057849#1 31971359#0 31971359#1 202234068#0 14811383#1 202234067" />
    <route id="r33" edges="237921036 237921036.41 59617619 237921040 12695649 12695650#1 59617584#2 180801664" />
    <route id="r34" edges="22293947 -145057849#1 -145057849#0 -145057844 -202234343 -31971356 -202234344 -281402235#1 -281402232" />
    <route id="r35" edges="-203986456#0 -60761764#2 -202234065#3 -202234065#0 -75642284#1 -30329931#2 -30329931#1 -202234068#2 -31971359#1 -31971359#0 -22293947" />
    <route id="r36" edges="-203986456#0 -60761764#2 60761760#0 60761760#3 75642281 14811377 202157700#0 202157700#3 893429999#1" />
    <route id="r37" edges="-180801664 -59617584#4 -12695650#1 -12695650#0 -237921040 -59617619 12695647 31971356 202234343 145057844 145057844.12 145057849#1 31971359#0 31971359#1 202234068#0 30329931#0 30329931#2 75642284#1 202234065#0 202234065#1 60761760#0 60761760#3 75642281 25563346#0" />
    <route id="r38" edges="281402232 281402240#0 281402240#1 59617619 237921040 12695649 12695650#1 59617584#2 180801664" />
    <route id="r39" edges="237921036 237921036.41 12695647 31971356 202234343 145057844 145057844.12 145057849#1 31971359#0 31971359#1 202234068#0 30329931#0 30329931#2 75642284#1 202234065#0 202234065#1 60761760#0 60761760#3 75642281 14811377 202157700#0 202157700#3 12528053#0" />
    <route id="r40" edges="-81920369 -14811383#2 -202234068#2 -31971359#1 -31971359#0 -145057849#1 -145057849#0 -145057844 -202234343 -31971356 240266960 189315784#0" />
    <route id="r41" edges="-26202222#0 -26202222#0.41 -202157700#5 -202157700#2 -14811377 -84620353#2 -60761760#3 -60761760#2 -202234065#3 -202234065#0 -75642284#1 -30329931#2 -30329931#1 308681382#0" />
    <route id="r42" edges="-14811364#0 202234068#0 30329931#0 30329931#2 75642284#1 202234065#0 202234065#1 60761764#0 203986456#0" />
    <route id="r43" edges="-180801664 -59617584#4 -12695650#1 -12695650#0 -237921040 -59617619 12695647 31971356 202234343 145057844 145057844.12 145057849#1 31971359#0 31971359#1 14811364#0" />
    <route id="r44" edges="-202157703 -202157700#5 -202157700#2 -14811377 -84620353#2 -60761760#3 -60761760#2 60761764#0 203986456#0" />
    <route id="r45" edges="-203986456#0 -60761764#2 -202234065#3 -202234065#0 -75642284#1 -30329931#2 -30329931#1 -202234068#2 -31971359#1 -31971359#0 -145057849#1 -145057849#0 -145057844 -202234343 -31971356 -202234344 -281402235#1 -281402232" />
    <route id="r46" edges="-81920369 -14811383#2 30329931#0 30329931#2 75642284#1 202234065#0 202234065#1 60761760#0 60761760#3 75642281 14811377 202157700#0 202157700#3 893429999#1" />
    <route id="r47" edges="-13831317#2 -13831317#2.34 -84620353#2 -60761760#3 -60761760#2 -202234065#3 -202234065#0 -75642284#1 -30329931#2 -30329931#1 -202234068#2 -31971359#1 -31971359#0 -145057849#1 -145057849#0 -145057844 -202234343 -31971356 -202234344 -237921036" />
    <route id="r48" edges="-1183449794 -84620353#2 -60761760#3 -60761760#2 -202234065#3 -202234065#0 -75642284#1 -30329931#2 -30329931#1 -202234068#2 -31971359#1 -31971359#0 -145057849#1 -145057849#0 -145057844 -202234343 -31971356 -202234344 59617619 237921040 12695649 12695650#1 59617584#2 180801664" />
    <route id="r49" edges="145057839#2 145057844 145057844.12 145057849#1 31971359#0 31971359#1 202234068#0 30329931#0 30329931#2 75642284#1 202234065#0 202234065#1 -81920360#2 -51655434" />
    <route id="r50" edges="-81920369 -14811383#2 30329931#0 30329931#2 75642284#1 202234065#0 202234065#1 60761760#0 60761760#3 75642281 14811377 202157700#0 202157700#3 12528053#0" />
    <route id="r51" edges="-1183449794 -84620353#2 -60761760#3 -60761760#2 -202234065#3 -202234065#0 -75642284#1 -30329931#2 -30329931#1 308681382#0" />
    <route id="r52" edges="-13831317#2 -13831317#2.34 -84620353#2 -60761760#3 -60761760#2 -202234065#3 -202234065#0 -75642284#1 -30329931#2 -30329931#1 -202234068#2 -31971359#1 -31971359#0 -145057849#1 -145057849#0 -145057844 -202234343 -31971356 -202234344 -281402235#1 -281402232" />
    <route id="r53" edges="-202157703 -202157700#5 -202157700#2 -14811377 -84620353#2 -60761760#3 -60761760#2 -202234065#3 -202234065#0 -75642284#1 -30329931#2 -30329931#1 308681382#0" />
    <route id="r54" edges="22293941 81920360#0 60761760#0 60761760#3 75642281 14811377 202157700#0 202157700#3 26202222#0" />
    <route id="r55" edges="237921036 237921036.41 12695647 31971356 202234343 145057844 145057844.12 145057849#1 31971359#0 31971359#1 202234068#0 30329931#0 30329931#2 75642284#1 202234065#0 202234065#1 -81920360#2 -51655434" />
    <route id="r56" edges="-180801664 -59617584#4 -12695650#1 -12695650#0 -237921040 -59617619 -237921036" />
    <route id="r57" edges="-203986456#0 -60761764#2 -202234065#3 -202234065#0 -75642284#1 -30329931#2 -30329931#1 -202234068#2 -31971359#1 -31971359#0 -145057849#1 -145057849#0 -145057844 -202234343 -31971356 240266960 189315784#0" />
    <route id="r58" edges="-13831317#2 -13831317#2.34 -84620353#2 -60761760#3 -60761760#2 -202234065#3 -202234065#0 -75642284#1 -30329931#2 -30329931#1 308681382#0" />
    <route id="r59" edges="22293941 81920360#0 60761760#0 60761760#3 75642281 14811377 202157700#0 202157700#3 12528053#0" />
    <route id="r60" edges="22293941 81920360#0 -202234065#3 -202234065#0 -75642284#1 -30329931#2 -30329931#1 -202234068#2 -31971359#1 -31971359#0 -145057849#1 -145057849#0 -145057844 -202234343 -31971356 -202234344 -237921036" />
    <route id="r61" edges="-14811364#0 202234068#0 30329931#0 30329931#2 75642284#1 202234065#0 202234065#1 60761760#0 60761760#3 75642281 25563346#0" />
    <route id="r62" edges="145057839#2 145057844 145057844.12 145057849#1 31971359#0 31971359#1 202234068#0 30329931#0 30329931#2 75642284#1 202234065#0 202234065#1 60761760#0 60761760#3 75642281 13831317#0" />
    <route id="r63" edges="-180801664 -59617584#4 -12695650#1 -12695650#0 -237921040 -59617619 12695647 31971356 202234343 145057844 145057844.12 145057849#1 31971359#0 31971359#1 202234068#0 30329931#0 30329931#2 75642284#1 202234065#0 202234065#1 60761764#0 203986456#0" />
    <route id="r64" edges="-203986456#0 -60761764#2 -202234065#3 -202234065#0 -75642284#1 -30329931#2 -30329931#1 -202234068#2 -31971359#1 -31971359#0 -145057849#1 -145057849#0 -145057844 -202234343 -31971356 -202234344 -237921036" />
    <route id="r65" edges="-202157703 -202157700#5 -202157700#2 -14811377 -84620353#2 -60761760#3 -60761760#2 -202234065#3 -202234065#0 -75642284#1 -30329931#2 -30329931#1 -202234068#2 14811364#0" />
    <route id="r66" edges="-13831317#2 -13831317#2.34 -84620353#2 -60761760#3 -60761760#2 -202234065#3 -202234065#0 -75642284#1 -30329931#2 -30329931#1 14811373#0" />
    <route id="r67" edges="237921036 237921036.41 12695647 31971356 202234343 145057844 145057844.12 145057849#1 31971359#0 31971359#1 202234068#0 14811383#1 202234067" />
    <route id="r68" edges="-202157703 -202157700#5 -202157700#2 -14811377 -84620353#2 -60761760#3 -60761760#2 -202234065#3 -202234065#0 -75642284#1 -30329931#2 -30329931#1 -202234068#2 -31971359#1 -31971359#0 -145057849#1 -145057849#0 -145057844 -202234343 -31971356 -202234344 59617619 237921040 12695649 12695650#1 59617584#2 180801664" />
    <route id="r69" edges="-81920369 -14811383#2 30329931#0 30329931#2 75642284#1 202234065#0 202234065#1 60761760#0 60761760#3 75642281 13831317#0" />
    <route id="r70" edges="145057839#2 145057844 145057844.12 145057849#1 31971359#0 31971359#1 202234068#0 30329931#0 30329931#2 75642284#1 202234065#0 202234065#1 60761760#0 60761760#3 75642281 25563346#0" />
    <route id="r71" edges="-26202222#0 -26202222#0.41 -202157700#5 -202157700#2 -14811377 -84620353#2 -60761760#3 -60761760#2 -202234065#3 -202234065#0 -75642284#1 -30329931#2 -30329931#1 -202234068#2 -31971359#1 -31971359#0 -22293947" />
    <route id="r72" edges="237921036 237921036.41 12695647 31971356 202234343 145057844 145057844.12 145057849#1 31971359#0 31971359#1 202234068#0 30329931#0 30329931#2 75642284#1 202234065#0 202234065#1 60761764#0 203986456#0" />
    <route id="r73" edges="-180801664 -59617584#4 -12695650#1 -12695650#0 -237921040 -59617619 12695647 31971356 202234343 145057844 145057844.12 145057849#1 31971359#0 31971359#1 202234068#0 30329931#0 30329931#2 75642284#1 202234065#0 202234065#1 60761760#0 60761760#3 75642281 13831317#0" />
    <route id="r74" edges="-202157703 -202157700#5 -202157700#2 -14811377 -84620353#2 -60761760#3 -60761760#2 -202234065#3 -202234065#0 -75642284#1 -30329931#2 -30329931#1 14811383#1 202234067" />
    <route id="r75" edges="145057839#2 145057844 145057844.12 145057849#1 31971359#0 31971359#1 202234068#0 30329931#0 30329931#2 75642284#1 202234065#0 202234065#1 60761760#0 60761760#3 75642281 14811377 202157700#0 202157700#3 26202222#0" />
    <route id="r76" edges="-13831317#2 -13831317#2.34 -84620353#2 -60761760#3 -60761760#2 -202234065#3 -202234065#0 -75642284#1 -30329931#2 -30329931#1 14811383#1 202234067" />
    <route id="r77" edges="-13831317#2 -13831317#2.34 -84620353#2 -60761760#3 -60761760#2 -202234065#3 -202234065#0 -75642284#1 -30329931#2 -30329931#1 -202234068#2 -31971359#1 -31971359#0 -145057849#1 -145057849#0 -145057844 -202234343 -31971356 240266960 189315784#0" />
    <route id="r78" edges="-81920369 -14811383#2 30329931#0 30329931#2 75642284#1 202234065#0 202234065#1 60761760#0 60761760#3 75642281 14811377 202157700#0 202157700#3 26202222#0" />
    <route id="r79" edges="145057839#2 145057844 145057844.12 145057849#1 31971359#0 31971359#1 202234068#0 30329931#0 30329931#2 75642284#1 202234065#0 202234065#1 60761760#0 60761760#3 75642281 14811377 202157700#0 202157700#3 893429999#1" />
    <route id="r80" edges="-26202222#0 -26202222#0.41 -202157700#5 -202157700#2 -14811377 -84620353#2 -60761760#3 -60761760#2 60761764#0 203986456#0" />
    <route id="r81" edges="-180801664 -59617584#4 -12695650#1 -12695650#0 -237921040 -59617619 -281402235#1 -281402232" />
    <route id="r82" edges="22293941 81920360#0 -202234065#3 -202234065#0 -75642284#1 -30329931#2 -30329931#1 -202234068#2 14811364#0" />
    <route id="r83" edges="-308681382#1 30329931#0 30329931#2 75642284#1 202234065#0 202234065#1 60761760#0 60761760#3 75642281 13831317#0" />
    <route id="r84" edges="-26202222#0 -26202222#0.41 -202157700#5 -202157700#2 -14811377 -84620353#2 -60761760#3 -60761760#2 -202234065#3 -202234065#0 -75642284#1 -30329931#2 -30329931#1 14811373#0" />
    <route id="r85" edges="22293941 81920360#0 -202234065#3 -202234065#0 -75642284#1 -30329931#2 -30329931#1 -202234068#2 -31971359#1 -31971359#0 -145057849#1 -145057849#0 -145057844 -202234343 -31971356 240266960 189315784#0" />
    <route id="r86" edges="-26202222#0 -26202222#0.41 -202157700#5 -202157700#2 -14811377 -84620353#2 -60761760#3 -60761760#2 -202234065#3 -202234065#0 -75642284#1 -30329931#2 -30329931#1 -202234068#2 -31971359#1 -31971359#0 -145057849#1 -145057849#0 -145057844 -202234343 -31971356 -202234344 -237921036" />
    <route id="r87" edges="-180801664 -59617584#4 -12695650#1 -12695650#0 -237921040 -59617619 12695647 31971356 202234343 145057844 145057844.12 145057849#1 31971359#0 31971359#1 202234068#0 30329931#0 30329931#2 75642284#1 202234065#0 202234065#1 60761760#0 60761760#3 75642281 14811377 202157700#0 202157700#3 893429999#1" />
    <route id="r88" edges="-13831317#2 -13831317#2.34 -84620353#2 -60761760#3 -60761760#2 -202234065#3 -202234065#0 -75642284#1 -30329931#2 -30329931#1 -202234068#2 -31971359#1 -31971359#0 -145057849#1 -145057849#0 -145057844 -202234343 -31971356 -202234344 59617619 237921040 12695649 12695650#1 59617584#2 180801664" />
    <route id="r89" edges="-26202222#0 -26202222#0.41 -202157700#5 -202157700#2 -14811377 -84620353#2 -60761760#3 -60761760#2 -202234065#3 -202234065#0 -75642284#1 -30329931#2 -30329931#1 -202234068#2 -31971359#1 -31971359#0 -145057849#1 -145057849#0 -145057844 -202234343 -31971356 -202234344 -281402235#1 -281402232" />
    <route id="r90" edges="145057839#2 145057844 145057844.12 145057849#1 31971359#0 31971359#1 202234068#0 30329931#0 30329931#2 75642284#1 202234065#0 202234065#1 60761764#0 203986456#0" />
    <route id="r91" edges="237921036 237921036.41 12695647 31971356 202234343 145057844 145057844.12 145057849#1 31971359#0 31971359#1 202234068#0 30329931#0 30329931#2 75642284#1 202234065#0 202234065#1 60761760#0 60761760#3 75642281 14811377 202157700#0 202157700#3 893429999#1" />
    <route id="r92" edges="-308681382#1 30329931#0 30329931#2 75642284#1 202234065#0 202234065#1 60761760#0 60761760#3 75642281 25563346#0" />
    <route id="r93" edges="-202157703 -202157700#5 -202157700#2 -14811377 -84620353#2 -60761760#3 -60761760#2 -202234065#3 -202234065#0 -75642284#1 -30329931#2 -30329931#1 -202234068#2 -31971359#1 -31971359#0 -145057849#1 -145057849#0 -145057844 -202234343 -31971356 -202234344 -237921036" />
    <route id="r94" edges="-26202222#0 -26202222#0.41 -202157700#5 -202157700#2 -14811377 -84620353#2 -60761760#3 -60761760#2 -202234065#3 -202234065#0 -75642284#1 -30329931#2 -30329931#1 -202234068#2 14811364#0" />
    <route id="r95" edges="-1183449794 -84620353#2 -60761760#3 -60761760#2 -202234065#3 -202234065#0 -75642284#1 -30329931#2 -30329931#1 14811383#1 202234067" />
    <route id="r96" edges="-203986456#0 -60761764#2 -202234065#3 -202234065#0 -75642284#1 -30329931#2 -30329931#1 -202234068#2 14811364#0" />
    <route id="r97" edges="-13831317#2 -13831317#2.34 -84620353#2 -60761760#3 -60761760#2 -202234065#3 -202234065#0 -75642284#1 -30329931#2 -30329931#1 -202234068#2 -31971359#1 -31971359#0 -22293947" />
    <route id="r98" edges="-81920369 -14811383#2 -202234068#2 -31971359#1 -31971359#0 -145057849#1 -145057849#0 -145057844 -202234343 -31971356 -202234344 59617619 237921040 12695649 12695650#1 59617584#2 180801664" />
    <route id="r99" edges="-81920369 -14811383#2 -202234068#2 -31971359#1 -31971359#0 -145057849#1 -145057849#0 -145057844 -202234343 -31971356 -202234344 -237921036" />
    <route id="r100" edges="-202157703 -202157700#5 -202157700#2 -14811377 -84620353#2 -60761760#3 -60761760#2 -202234065#3 -202234065#0 -75642284#1 -30329931#2 -30329931#1 14811373#0" />
    <route id="r101" edges="-203986456#0 -60761764#2 -202234065#3 -202234065#0 -75642284#1 -30329931#2 -30329931#1 14811383#1 202234067" />
    <route id="r102" edges="237921036 237921036.41 12695647 31971356 202234343 145057844 145057844.12 145057849#1 31971359#0 31971359#1 202234068#0 30329931#0 30329931#2 75642284#1 202234065#0 202234065#1 60761760#0 60761760#3 75642281 13831317#0" />
    <route id="r103" edges="-81920369 -14811383#2 30329931#0 30329931#2 75642284#1 202234065#0 202234065#1 60761764#0 203986456#0" />
    <route id="r104" edges="145057839#2 145057844 145057844.12 145057849#1 31971359#0 31971359#1 202234068#0 30329931#0 30329931#2 75642284#1 202234065#0 202234065#1 60761760#0 60761760#3 75642281 14811377 202157700#0 202157700#3 12528053#0" />
    <route id="r105" edges="-180801664 -59617584#4 -12695650#1 -12695650#0 -237921040 -59617619 12695647 31971356 202234343 145057844 145057844.12 145057849#1 -22293947" />
    <route id="r106" edges="-81920369 -14811383#2 30329931#0 30329931#2 75642284#1 202234065#0 202234065#1 60761760#0 60761760#3 75642281 25563346#0" />
    <route id="r107" edges="237921036 237921036.41 12695647 31971356 202234343 145057844 145057844.12 145057849#1 31971359#0 31971359#1 14811364#0" />
    <route id="r108" edges="-308681382#1 30329931#0 30329931#2 75642284#1 202234065#0 202234065#1 60761760#0 60761760#3 75642281 14811377 202157700#0 202157700#3 26202222#0" />
    <route id="r109" edges="-26202222#0 -26202222#0.41 -202157700#5 -202157700#2 -14811377 -84620353#2 -60761760#3 -60761760#2 -202234065#3 -202234065#0 -75642284#1 -30329931#2 -30329931#1 -202234068#2 -31971359#1 -31971359#0 -145057849#1 -145057849#0 -145057844 -202234343 -31971356 240266960 189315784#0" />
    <route id="r110" edges="237921036 237921036.41 12695647 31971356 202234343 145057844 145057844.12 145057849#1 31971359#0 31971359#1 202234068#0 30329931#0 30329931#2 75642284#1 202234065#0 202234065#1 60761760#0 60761760#3 75642281 25563346#0" />
    <route id="r111" edges="145057839#2 145057844 145057844.12 145057849#1 31971359#0 31971359#1 202234068#0 308681382#0" />
    <route id="r112" edges="-1183449794 -84620353#2 -60761760#3 -60761760#2 -202234065#3 -202234065#0 -75642284#1 -30329931#2 -30329931#1 -202234068#2 -31971359#1 -31971359#0 -145057849#1 -145057849#0 -145057844 -202234343 -31971356 -202234344 -281402235#1 -281402232" />
    <route id="r113" edges="237921036 237921036.41 12695647 31971356 202234343 145057844 145057844.12 145057849#1 -22293947" />
    <route id="r114" edges="-14811364#0 202234068#0 30329931#0 30329931#2 75642284#1 202234065#0 202234065#1 60761760#0 60761760#3 75642281 14811377 202157700#0 202157700#3 26202222#0" />
    <route id="r115" edges="-203986456#0 -60761764#2 60761760#0 60761760#3 75642281 14811377 202157700#0 202157700#3 12528053#0" />
    <route id="r116" edges="-203986456#0 -60761764#2 60761760#0 60761760#3 75642281 14811377 202157700#0 202157700#3 26202222#0" />
    <route id="r117" edges="-26202222#0 -26202222#0.41 -202157700#5 -202157700#2 -14811377 -84620353#2 -60761760#3 -60761760#2 -202234065#3 -202234065#0 -75642284#1 -30329931#2 -30329931#1 14811383#1 202234067" />
    <route id="r118" edges="237921036 237921036.41 12695647 31971356 202234343 145057844 145057844.12 145057849#1 31971359#0 31971359#1 202234068#0 308681382#0" />
    <route id="r119" edges="-202157703 -202157700#5 -202157700#2 -14811377 -84620353#2 -60761760#3 -60761760#2 -81920360#2 -51655434" />
    <route id="r120" edges="-1182936853 26202222#0" />
    <route id="r121" edges="-1182936853 12528053#0" />
    <route id="r122" edges="-13831317#2 -13831317#2.34 14811377 202157700#0 202157700#3 893429999#1" />
    <route id="r123" edges="-13831317#2 -13831317#2.34 14811377 202157700#0 202157700#3 26202222#0" />
    <route id="r124" edges="-13831317#2 -13831317#2.34 14811377 202157700#0 202157700#3 12528053#0" />
    <route id="r125" edges="-13831317#2.34 17707991#0" />
    <route id="r126" edges="-13831317#2 -13831317#2.34 25563346#0" />
    <route id="r127" edges="-202157703 893429999#1" />
    <route id="r128" edges="-25563346#2 13831317#0" />
    <route id="r129" edges="-26202222#0 -26202222#0.41 893429999#1" />
    <route id="r130" edges="237921036 237921036.41 -281402235#1 -281402232" />
    <route id="r131" edges="-81920369 -14811383#2 14811373#0" />
    <route id="r132" edges="-81920369 -14811383#2 308681382#0" />
</routes>