<?xml version="1.0" encoding="UTF-8"?>
<routes>
    <route id="manual_01" edges="-1182936853 26202222#0"/>
    <route id="manual_02" edges="-1182936853 12528053#0"/>

    <route id="manual_03" edges="-13831317#2 -13831317#2.34 14811377 202157700#0 202157700#3 893429999#1"/>
    <route id="manual_04" edges="-13831317#2 -13831317#2.34 14811377 202157700#0 202157700#3 26202222#0"/>
    <route id="manual_05" edges="-13831317#2 -13831317#2.34 14811377 202157700#0 202157700#3 12528053#0"/>
    <route id="manual_06" edges="-13831317#2.34 17707991#0"/>
    <route id="manual_07" edges="-13831317#2 -13831317#2.34 25563346#0"/>

    <route id="manual_08" edges="-202157703 893429999#1"/>
    <route id="manual_09" edges="-25563346#2 13831317#0"/>
    <route id="manual_10" edges="-26202222#0 -26202222#0.41 893429999#1"/>

    <route id="manual_11" edges="237921036 237921036.41 -281402235#1 -281402232"/>
    <route id="manual_12" edges="-81920369 -14811383#2 14811373#0"/>
    <route id="manual_13" edges="-81920369 -14811383#2 308681382#0"/>


</routes>