<?xml version="1.0" encoding="UTF-8"?>

<routes xmlns:xsi="http://www.w3.org/2001/XMLSchema-instance" xsi:noNamespaceSchemaLocation="http://sumo.dlr.de/xsd/routes_file.xsd">
    <vehicle id="0" depart="0.00">
        <route edges="-180801664 -59617584#4 -12695650#1 -12695650#0 -237921040 -59617619 12695647 31971356 202234343 145057844 145057844.12 145057849#1 31971359#0 31971359#1 202234068#0 30329931#0 30329931#2 75642284#1 202234065#0 202234065#1 -81920360#2 -51655434"/>
    </vehicle>
    <vehicle id="1" depart="0.05">
        <route edges="125964106 -202234343 -31971356 -202234344 59617619 237921040 12695649 12695650#1 59617584#2 180801664"/>
    </vehicle>
    <vehicle id="2" depart="0.10">
        <route edges="22293941 81920360#0 -202234065#3 -202234065#0 -75642284#1 -30329931#2 -30329931#1 -202234068#2 -31971359#1 -31971359#0 -145057849#1"/>
    </vehicle>
    <vehicle id="3" depart="0.15">
        <route edges="-202234065#0 -75642284#1 -30329931#2 -30329931#1 -202234068#2 -31971359#1 -31971359#0 -145057849#1 -145057849#0 -145057844 -202234343 -31971356 -202234344 -281402235#1 -281402232"/>
    </vehicle>
    <vehicle id="4" depart="0.20">
        <route edges="-1183449794 -84620353#2 -60761760#3 -60761760#2 -202234065#3 -202234065#0 -75642284#1 -30329931#2 -30329931#1 -202234068#2 -31971359#1 -31971359#0 -145057849#1 -145057849#0 -145057844 -202234343 -31971356 -202234344 -237921036"/>
    </vehicle>
    <vehicle id="5" depart="0.25">
        <route edges="-203986456#0 -60761764#2 -202234065#3 -202234065#0 -75642284#1 -30329931#2 -30329931#1 -202234068#2 -31971359#1 -31971359#0 -145057849#1 -145057849#0 -145057844 -202234343 -31971356 -202234344 59617619 237921040 12695649 12695650#1 59617584#2 180801664"/>
    </vehicle>
    <vehicle id="6" depart="0.30">
        <route edges="22293947 -145057849#1 -145057849#0 -145057844 -202234343 -31971356 -202234344 59617619 237921040 12695649 12695650#1 59617584#2 180801664"/>
    </vehicle>
    <vehicle id="7" depart="0.35">
        <route edges="-180801664 -59617584#4 -12695650#1 -12695650#0 -237921040 -59617619 12695647 31971356 202234343 145057844 145057844.12 145057849#1 31971359#0 31971359#1 202234068#0 30329931#0 30329931#2 75642284#1 202234065#0 202234065#1 60761760#0 60761760#3 75642281 14811377 202157700#0 202157700#3 12528053#0"/>
    </vehicle>
    <vehicle id="8" depart="0.40">
        <route edges="-13831317#2 -13831317#2.34 -84620353#2 -60761760#3 -60761760#2 -202234065#3 -202234065#0 -75642284#1 -30329931#2 -30329931#1 -202234068#2 14811364#0"/>
    </vehicle>
    <vehicle id="9" depart="0.45">
        <route edges="-180801664 -59617584#4 -12695650#1 -12695650#0 -237921040 -59617619 12695647 31971356 202234343 145057844 145057844.12 145057849#1 -22293947"/>
    </vehicle>
    <vehicle id="10" depart="0.50">
        <route edges="237921036 237921036.41 12695647 31971356 202234343 145057844 145057844.12 145057849#1 31971359#0 31971359#1 202234068#0 30329931#0 30329931#2 75642284#1 202234065#0 202234065#1 60761760#0 60761760#3 75642281 13831317#0"/>
    </vehicle>
    <vehicle id="11" depart="0.55">
        <route edges="-308681382#1 30329931#0 30329931#2 75642284#1 202234065#0 202234065#1 60761760#0 60761760#3 75642281 14811377 202157700#0 202157700#3 12528053#0"/>
    </vehicle>
    <vehicle id="12" depart="0.60">
        <route edges="-237921040 -59617619 12695647 31971356 202234343 145057844 145057844.12 145057849#1 31971359#0 31971359#1 202234068#0 30329931#0 30329931#2 75642284#1 202234065#0 202234065#1 -81920360#2 -51655434"/>
    </vehicle>
    <vehicle id="13" depart="0.65">
        <route edges="125964106 -202234343 -31971356 -202234344 59617619 237921040 12695649 12695650#1 59617584#2 180801664"/>
    </vehicle>
    <vehicle id="14" depart="0.70">
        <route edges="237921036 237921036.41 12695647 31971356 202234343 145057844 145057844.12 145057849#1 31971359#0 31971359#1 202234068#0 30329931#0 30329931#2 75642284#1 202234065#0 202234065#1 60761760#0 60761760#3 75642281 14811377 202157700#0 202157700#3 12528053#0"/>
    </vehicle>
    <vehicle id="15" depart="0.75">
        <route edges="-26202222#0 -26202222#0.41 -202157700#5 -202157700#2 -14811377 -84620353#2 -60761760#3 -60761760#2 -202234065#3 -202234065#0 -75642284#1 -30329931#2 -30329931#1 -202234068#2 -31971359#1 -31971359#0 -145057849#1 -145057849#0 -145057844 -202234343 -31971356 -202234344 -281402235#1 -281402232"/>
    </vehicle>
    <vehicle id="16" depart="0.80">
        <route edges="237921036 237921036.41 12695647 31971356 202234343 145057844 145057844.12 145057849#1 31971359#0 31971359#1 202234068#0 30329931#0 30329931#2 75642284#1 202234065#0 202234065#1 60761760#0 60761760#3 75642281 14811377 202157700#0 202157700#3 26202222#0"/>
    </vehicle>
    <vehicle id="17" depart="0.85">
        <route edges="-202157703 -202157700#5 -202157700#2 -14811377 -84620353#2 -60761760#3 -60761760#2 -202234065#3 -202234065#0 -75642284#1 -30329931#2 -30329931#1 -202234068#2 -31971359#1 -31971359#0 -145057849#1 -145057849#0 -145057844 -202234343 -31971356 240266960 189315784#0"/>
    </vehicle>
    <vehicle id="18" depart="0.90">
        <route edges="22293941 81920360#0 -202234065#3 -202234065#0 -75642284#1 -30329931#2 -30329931#1 -202234068#2 -31971359#1 -31971359#0 -145057849#1 -145057849#0 -145057844 -202234343 -31971356 -202234344 59617619 237921040 12695649 12695650#1 59617584#2 180801664"/>
    </vehicle>
    <vehicle id="19" depart="0.95">
        <route edges="237921036 237921036.41 12695647 31971356 202234343 145057844 145057844.12 145057849#1 31971359#0 31971359#1 202234068#0 30329931#0 30329931#2 75642284#1 202234065#0 202234065#1 60761760#0 60761760#3 75642281 14811377 202157700#0 202157700#3 26202222#0"/>
    </vehicle>
    <vehicle id="20" depart="1.00">
        <route edges="-202157703 -202157700#5 -202157700#2 -14811377 -84620353#2 -60761760#3 -60761760#2 -202234065#3 -202234065#0 -75642284#1 -30329931#2 -30329931#1 -202234068#2 -31971359#1 -31971359#0 -22293947"/>
    </vehicle>
    <vehicle id="21" depart="1.05">
        <route edges="237921036 237921036.41 12695647 31971356 202234343 145057844 145057844.12 145057849#1 31971359#0 31971359#1 202234068#0 30329931#0 30329931#2 75642284#1 202234065#0 202234065#1 60761760#0 60761760#3 75642281 14811377 202157700#0 202157700#3 893429999#1"/>
    </vehicle>
    <vehicle id="22" depart="1.10">
        <route edges="22293941 81920360#0 -202234065#3 -202234065#0 -75642284#1 -30329931#2 -30329931#1 -202234068#2 -31971359#1 -31971359#0 -145057849#1 -145057849#0 -145057844 -202234343 -31971356 -202234344 -281402235#1 -281402232"/>
    </vehicle>
    <vehicle id="23" depart="1.15">
        <route edges="-26202222#0 -26202222#0.41 -202157700#5 -202157700#2 -14811377 -84620353#2 -60761760#3 -60761760#2 -202234065#3 -202234065#0 -75642284#1 -30329931#2 -30329931#1 -202234068#2 -31971359#1 -31971359#0 -145057849#1 -145057849#0 -145057844 -202234343 -31971356 -202234344 59617619 237921040 12695649 12695650#1 59617584#2 180801664"/>
    </vehicle>
    <vehicle id="24" depart="1.20">
        <route edges="-180801664 -59617584#4 -12695650#1 -12695650#0 -237921040 -59617619 12695647 31971356 202234343 145057844 145057844.12 145057849#1 31971359#0 31971359#1 202234068#0 30329931#0 30329931#2 75642284#1 202234065#0 202234065#1 60761760#0 60761760#3 75642281 14811377 202157700#0 202157700#3 26202222#0"/>
    </vehicle>
    <vehicle id="25" depart="1.25">
        <route edges="-14811364#0 202234068#0 30329931#0 30329931#2 75642284#1 202234065#0 202234065#1 60761760#0 60761760#3 75642281 13831317#0"/>
    </vehicle>
    <vehicle id="26" depart="1.30">
        <route edges="-202157703 -202157700#5 -202157700#2 -14811377 -84620353#2 -60761760#3 -60761760#2 -202234065#3 -202234065#0 -75642284#1 -30329931#2 -30329931#1 -202234068#2 -31971359#1 -31971359#0 -145057849#1 -145057849#0 -145057844 -202234343 -31971356 -202234344 59617619 237921040 12695649 12695650#1 59617584#2 180801664"/>
    </vehicle>
    <vehicle id="27" depart="1.35">
        <route edges="-180801664 -59617584#4 -12695650#1 -12695650#0 -237921040 -59617619 12695647 31971356 202234343 145057844 145057844.12 145057849#1 31971359#0 31971359#1 202234068#0 30329931#0 30329931#2 75642284#1 202234065#0 202234065#1 -81920360#2 -51655434"/>
    </vehicle>
    <vehicle id="28" depart="1.40">
        <route edges="-1183449794 -84620353#2 -60761760#3 -60761760#2 -202234065#3 -202234065#0 -75642284#1 -30329931#2 -30329931#1 -202234068#2 -31971359#1 -31971359#0 -145057849#1 -145057849#0 -145057844 -202234343 -31971356 240266960 189315784#0"/>
    </vehicle>
    <vehicle id="29" depart="1.45">
        <route edges="-180801664 -59617584#4 -12695650#1 -12695650#0 -237921040 -59617619 12695647 31971356 202234343 145057844 145057844.12 145057849#1 31971359#0 31971359#1 202234068#0 308681382#0"/>
    </vehicle>
    <vehicle id="30" depart="1.50">
        <route edges="-180801664 -59617584#4 -12695650#1 -12695650#0 -237921040 -59617619 12695647 31971356 202234343 145057844 145057844.12 145057849#1 31971359#0 31971359#1 202234068#0 14811383#1 202234067"/>
    </vehicle>
    <vehicle id="31" depart="1.55">
        <route edges="-180801664 -59617584#4 -12695650#1 -12695650#0 -237921040 -59617619 12695647 31971356 202234343 145057844 145057844.12 145057849#1 31971359#0 31971359#1 202234068#0 308681382#0"/>
    </vehicle>
    <vehicle id="32" depart="1.60">
        <route edges="-180801664 -59617584#4 -12695650#1 -12695650#0 -237921040 -59617619 12695647 31971356 202234343 145057844 145057844.12 145057849#1 31971359#0 31971359#1 202234068#0 30329931#0 30329931#2 75642284#1 202234065#0 202234065#1 60761760#0 60761760#3 75642281 25563346#0"/>
    </vehicle>
    <vehicle id="33" depart="1.65">
        <route edges="-1183449794 -84620353#2 -60761760#3 -60761760#2 -202234065#3 -202234065#0 -75642284#1 -30329931#2 -30329931#1 -202234068#2 -31971359#1 -31971359#0 -145057849#1 -145057849#0 -145057844 -202234343 -31971356 -202234344 59617619 237921040 12695649 12695650#1 59617584#2 180801664"/>
    </vehicle>
    <vehicle id="34" depart="1.70">
        <route edges="-180801664 -59617584#4 -12695650#1 -12695650#0 -237921040 -59617619 12695647 31971356 202234343 145057844 145057844.12 145057849#1 31971359#0 31971359#1 14811364#0"/>
    </vehicle>
    <vehicle id="35" depart="1.75">
        <route edges="-180801664 -59617584#4 -12695650#1 -12695650#0 -237921040 -59617619 12695647 31971356 202234343 145057844 145057844.12 145057849#1 31971359#0 31971359#1 202234068#0 308681382#0"/>
    </vehicle>
    <vehicle id="36" depart="1.80">
        <route edges="237921036 237921036.41 12695647 31971356 202234343 145057844 145057844.12 145057849#1 31971359#0 31971359#1 202234068#0 308681382#0"/>
    </vehicle>
    <vehicle id="37" depart="1.85">
        <route edges="-203986456#0 -60761764#2 -202234065#3 -202234065#0 -75642284#1 -30329931#2 -30329931#1 -202234068#2 -31971359#1 -31971359#0 -145057849#1 -145057849#0 -145057844 -202234343 -31971356 -202234344 -281402235#1 -281402232"/>
    </vehicle>
    <vehicle id="38" depart="1.90">
        <route edges="-81920369 -14811383#2 30329931#0 30329931#2 75642284#1 202234065#0 202234065#1 60761760#0 60761760#3 75642281 14811377 202157700#0 202157700#3 893429999#1"/>
    </vehicle>
    <vehicle id="39" depart="1.95">
        <route edges="-13831317#2 -13831317#2.34 -84620353#2 -60761760#3 -60761760#2 -202234065#3 -202234065#0 -75642284#1 -30329931#2 -30329931#1 -202234068#2 -31971359#1 -31971359#0 -145057849#1 -145057849#0 -145057844 -202234343 -31971356 -202234344 -237921036"/>
    </vehicle>
    <vehicle id="40" depart="2.00">
        <route edges="-1183449794 -84620353#2 -60761760#3 -60761760#2 -202234065#3 -202234065#0 -75642284#1 -30329931#2 -30329931#1 -202234068#2 -31971359#1 -31971359#0 -145057849#1 -145057849#0 -145057844 -202234343 -31971356 -202234344 59617619 237921040 12695649 12695650#1 59617584#2 180801664"/>
    </vehicle>
    <vehicle id="41" depart="2.05">
        <route edges="145057839#2 145057844 145057844.12 145057849#1 31971359#0 31971359#1 202234068#0 30329931#0 30329931#2 75642284#1 202234065#0 202234065#1 -81920360#2 -51655434"/>
    </vehicle>
    <vehicle id="42" depart="2.10">
        <route edges="-81920369 -14811383#2 30329931#0 30329931#2 75642284#1 202234065#0 202234065#1 60761760#0 60761760#3 75642281 14811377 202157700#0 202157700#3 12528053#0"/>
    </vehicle>
    <vehicle id="43" depart="2.15">
        <route edges="-26202222#0 -26202222#0.41 -202157700#5 -202157700#2 -14811377 -84620353#2 -60761760#3 -60761760#2 -202234065#3 -202234065#0 -75642284#1 -30329931#2 -30329931#1 308681382#0"/>
    </vehicle>
    <vehicle id="44" depart="2.20">
        <route edges="145057839#2 -202234343 -31971356 -202234344 59617619 237921040 12695649 12695650#1 59617584#2 180801664"/>
    </vehicle>
    <vehicle id="45" depart="2.25">
        <route edges="22293947 -145057849#1 -145057849#0 -145057844 -202234343 -31971356 -202234344 59617619 237921040 12695649 12695650#1 59617584#2 180801664"/>
    </vehicle>
    <vehicle id="46" depart="2.30">
        <route edges="-202157703 -202157700#5 -202157700#2 -14811377 -84620353#2 -60761760#3 -60761760#2 -202234065#3 -202234065#0 -75642284#1 -30329931#2 -30329931#1 308681382#0"/>
    </vehicle>
    <vehicle id="47" depart="2.35">
        <route edges="237921036 237921036.41 12695647 31971356 202234343 145057844 145057844.12 145057849#1 31971359#0 31971359#1 202234068#0 30329931#0 30329931#2 75642284#1 202234065#0 202234065#1 -81920360#2 -51655434"/>
    </vehicle>
    <vehicle id="48" depart="2.40">
        <route edges="-202157703 -202157700#5 -202157700#2 -14811377 -84620353#2 -60761760#3 -60761760#2 -202234065#3 -202234065#0 -75642284#1 -30329931#2 -30329931#1 308681382#0"/>
    </vehicle>
    <vehicle id="49" depart="2.45">
        <route edges="22293941 81920360#0 -202234065#3 -202234065#0 -75642284#1 -30329931#2 -30329931#1 -202234068#2 -31971359#1 -31971359#0 -145057849#1 -145057849#0 -145057844 -202234343 -31971356 -202234344 -237921036"/>
    </vehicle>
    <vehicle id="50" depart="2.50">
        <route edges="237921036 237921036.41 12695647 31971356 202234343 145057844 145057844.12 145057849#1 31971359#0 31971359#1 202234068#0 30329931#0 30329931#2 75642284#1 202234065#0 202234065#1 60761760#0 60761760#3 75642281 14811377 202157700#0 202157700#3 26202222#0"/>
    </vehicle>
    <vehicle id="51" depart="2.55">
        <route edges="145057839#2 145057844 145057844.12 145057849#1 31971359#0 31971359#1 202234068#0 30329931#0 30329931#2 75642284#1 202234065#0 202234065#1 60761760#0 60761760#3 75642281 13831317#0"/>
    </vehicle>
    <vehicle id="52" depart="2.60">
        <route edges="-203986456#0 -60761764#2 -202234065#3 -202234065#0 -75642284#1 -30329931#2 -30329931#1 -202234068#2 -31971359#1 -31971359#0 -145057849#1 -145057849#0 -145057844 -202234343 -31971356 -202234344 59617619 237921040 12695649 12695650#1 59617584#2 180801664"/>
    </vehicle>
    <vehicle id="53" depart="2.65">
        <route edges="-180801664 -59617584#4 -12695650#1 -12695650#0 -237921040 -59617619 12695647 31971356 202234343 145057844 145057844.12 145057849#1 31971359#0 31971359#1 202234068#0 30329931#0 30329931#2 75642284#1 202234065#0 202234065#1 60761764#0 203986456#0"/>
    </vehicle>
    <vehicle id="54" depart="2.70">
        <route edges="145057839#2 145057844 145057844.12 145057849#1 31971359#0 31971359#1 202234068#0 30329931#0 30329931#2 75642284#1 202234065#0 202234065#1 60761760#0 60761760#3 75642281 14811377 202157700#0 202157700#3 12528053#0"/>
    </vehicle>
    <vehicle id="55" depart="2.75">
        <route edges="-202157703 -202157700#5 -202157700#2 -14811377 -84620353#2 -60761760#3 -60761760#2 -202234065#3 -202234065#0 -75642284#1 -30329931#2 -30329931#1 -202234068#2 14811364#0"/>
    </vehicle>
    <vehicle id="56" depart="2.80">
        <route edges="-13831317#2 -13831317#2.34 -84620353#2 -60761760#3 -60761760#2 -202234065#3 -202234065#0 -75642284#1 -30329931#2 -30329931#1 -202234068#2 14811364#0"/>
    </vehicle>
    <vehicle id="57" depart="2.85">
        <route edges="-202157703 -202157700#5 -202157700#2 -14811377 -84620353#2 -60761760#3 -60761760#2 -202234065#3 -202234065#0 -75642284#1 -30329931#2 -30329931#1 -202234068#2 -31971359#1 -31971359#0 -145057849#1 -145057849#0 -145057844 -202234343 -31971356 -202234344 59617619 237921040 12695649 12695650#1 59617584#2 180801664"/>
    </vehicle>
    <vehicle id="58" depart="2.90">
        <route edges="-26202222#0 -26202222#0.41 -202157700#5 -202157700#2 -14811377 -84620353#2 -60761760#3 -60761760#2 -202234065#3 -202234065#0 -75642284#1 -30329931#2 -30329931#1 308681382#0"/>
    </vehicle>
    <vehicle id="59" depart="2.95">
        <route edges="22293941 81920360#0 -202234065#3 -202234065#0 -75642284#1 -30329931#2 -30329931#1 -202234068#2 -31971359#1 -31971359#0 -145057849#1 -145057849#0 -145057844 -202234343 -31971356 -202234344 -281402235#1 -281402232"/>
    </vehicle>
    <vehicle id="60" depart="3.00">
        <route edges="-81920369 -14811383#2 30329931#0 30329931#2 75642284#1 202234065#0 202234065#1 60761760#0 60761760#3 75642281 13831317#0"/>
    </vehicle>
    <vehicle id="61" depart="3.05">
        <route edges="145057849#1 31971359#0 31971359#1 202234068#0 30329931#0 30329931#2 75642284#1 202234065#0 202234065#1 60761760#0 60761760#3 75642281 25563346#0"/>
    </vehicle>
    <vehicle id="62" depart="3.10">
        <route edges="-14811364#0 202234068#0 30329931#0 30329931#2 75642284#1 202234065#0 202234065#1 60761760#0 60761760#3 75642281 14811377 202157700#0 202157700#3 893429999#1"/>
    </vehicle>
    <vehicle id="63" depart="3.15">
        <route edges="-180801664 -59617584#4 -12695650#1 -12695650#0 -237921040 -59617619 12695647 31971356 202234343 145057844 145057844.12 145057849#1 31971359#0 31971359#1 202234068#0 30329931#0 30329931#2 75642284#1 202234065#0 202234065#1 60761760#0 60761760#3 75642281 14811377 202157700#0 202157700#3 26202222#0"/>
    </vehicle>
    <vehicle id="64" depart="3.20">
        <route edges="-81920369 -14811383#2 30329931#0 30329931#2 75642284#1 202234065#0 202234065#1 60761760#0 60761760#3 75642281 14811377 202157700#0 202157700#3 893429999#1"/>
    </vehicle>
    <vehicle id="65" depart="3.25">
        <route edges="22293947 -145057849#1 -145057849#0 -145057844 -202234343 -31971356 -202234344 59617619 237921040 12695649 12695650#1 59617584#2 180801664"/>
    </vehicle>
    <vehicle id="66" depart="3.30">
        <route edges="237921036 237921036.41 12695647 31971356 202234343 145057844 145057844.12 145057849#1 31971359#0 31971359#1 202234068#0 30329931#0 30329931#2 75642284#1 202234065#0 202234065#1 60761764#0 203986456#0"/>
    </vehicle>
    <vehicle id="67" depart="3.35">
        <route edges="-81920369 -14811383#2 30329931#0 30329931#2 75642284#1 202234065#0 202234065#1 60761760#0 60761760#3 75642281 14811377 202157700#0 202157700#3 12528053#0"/>
    </vehicle>
    <vehicle id="68" depart="3.40">
        <route edges="-180801664 -59617584#4 -12695650#1 -12695650#0 -237921040 -59617619 12695647 31971356 202234343 145057844 145057844.12 145057849#1 31971359#0 31971359#1 202234068#0 30329931#0 30329931#2 75642284#1 202234065#0 202234065#1 60761760#0 60761760#3 75642281 13831317#0"/>
    </vehicle>
    <vehicle id="69" depart="3.45">
        <route edges="-180801664 -59617584#4 -12695650#1 -12695650#0 -237921040 -59617619 12695647 31971356 202234343 145057844 145057844.12 145057849#1 31971359#0 31971359#1 202234068#0 14811383#1 202234067"/>
    </vehicle>
    <vehicle id="70" depart="3.50">
        <route edges="-202157703 -202157700#5 -202157700#2 -14811377 -84620353#2 -60761760#3 -60761760#2 -202234065#3 -202234065#0 -75642284#1 -30329931#2 -30329931#1 14811383#1 202234067"/>
    </vehicle>
    <vehicle id="71" depart="3.55">
        <route edges="-203986456#0 -60761764#2 -202234065#3 -202234065#0 -75642284#1 -30329931#2 -30329931#1 -202234068#2 -31971359#1 -31971359#0 -145057849#1 -145057849#0 -145057844 -202234343 -31971356 -202234344 59617619 237921040 12695649 12695650#1 59617584#2 180801664"/>
    </vehicle>
    <vehicle id="72" depart="3.60">
        <route edges="-14811364#0 202234068#0 30329931#0 30329931#2 75642284#1 202234065#0 202234065#1 60761760#0 60761760#3 75642281 13831317#0"/>
    </vehicle>
    <vehicle id="73" depart="3.65">
        <route edges="-13831317#2 -13831317#2.34 -84620353#2 -60761760#3 -60761760#2 -202234065#3 -202234065#0 -75642284#1 -30329931#2 -30329931#1 14811383#1 202234067"/>
    </vehicle>
    <vehicle id="74" depart="3.70">
        <route edges="145057839#2 145057844 145057844.12 145057849#1 31971359#0 31971359#1 202234068#0 30329931#0 30329931#2 75642284#1 202234065#0 202234065#1 60761760#0 60761760#3 75642281 25563346#0"/>
    </vehicle>
    <vehicle id="75" depart="3.75">
        <route edges="-202157703 -202157700#5 -202157700#2 -14811377 -84620353#2 -60761760#3 -60761760#2 -202234065#3 -202234065#0 -75642284#1 -30329931#2 -30329931#1 14811383#1 202234067"/>
    </vehicle>
    <vehicle id="76" depart="3.80">
        <route edges="145057839#2 145057844 145057844.12 145057849#1 31971359#0 31971359#1 202234068#0 30329931#0 30329931#2 75642284#1 202234065#0 202234065#1 60761760#0 60761760#3 75642281 14811377 202157700#0 202157700#3 893429999#1"/>
    </vehicle>
    <vehicle id="77" depart="3.85">
        <route edges="-180801664 -59617584#4 -12695650#1 -12695650#0 -237921040 -59617619 12695647 31971356 202234343 145057844 145057844.12 145057849#1 31971359#0 31971359#1 202234068#0 30329931#0 30329931#2 75642284#1 202234065#0 202234065#1 60761760#0 60761760#3 75642281 25563346#0"/>
    </vehicle>
    <vehicle id="78" depart="3.90">
        <route edges="-180801664 -59617584#4 -12695650#1 -12695650#0 -237921040 -59617619 12695647 31971356 202234343 145057844 145057844.12 145057849#1 31971359#0 31971359#1 202234068#0 30329931#0 30329931#2 75642284#1 202234065#0 202234065#1 60761760#0 60761760#3 75642281 14811377 202157700#0 202157700#3 26202222#0"/>
    </vehicle>
    <vehicle id="79" depart="3.95">
        <route edges="237921036 237921036.41 12695647 31971356 202234343 145057844 145057844.12 145057849#1 31971359#0 31971359#1 202234068#0 30329931#0 30329931#2 75642284#1 202234065#0 202234065#1 -81920360#2 -51655434"/>
    </vehicle>
    <vehicle id="80" depart="4.00">
        <route edges="-26202222#0 -26202222#0.41 -202157700#5 -202157700#2 -14811377 -84620353#2 -60761760#3 -60761760#2 -202234065#3 -202234065#0 -75642284#1 -30329931#2 -30329931#1 -202234068#2 -31971359#1 -31971359#0 -145057849#1 -145057849#0 -145057844 -202234343 -31971356 240266960 189315784#0"/>
    </vehicle>
    <vehicle id="81" depart="4.05">
        <route edges="145057839#2 145057844 145057844.12 145057849#1 31971359#0 31971359#1 202234068#0 30329931#0 30329931#2 75642284#1 202234065#0 202234065#1 60761760#0 60761760#3 75642281 14811377 202157700#0 202157700#3 12528053#0"/>
    </vehicle>
    <vehicle id="82" depart="4.10">
        <route edges="12695647 31971356 202234343 145057844 145057844.12 145057849#1 31971359#0 31971359#1 202234068#0 30329931#0 30329931#2 75642284#1 202234065#0 202234065#1 60761760#0 60761760#3 75642281 14811377 202157700#0 202157700#3"/>
    </vehicle>
    <vehicle id="83" depart="4.15">
        <route edges="145057839#2 145057844 145057844.12 145057849#1 31971359#0 31971359#1 202234068#0 30329931#0 30329931#2 75642284#1 202234065#0 202234065#1 60761760#0 60761760#3 75642281 13831317#0"/>
    </vehicle>
    <vehicle id="84" depart="4.20">
        <route edges="145057839#2 145057844 145057844.12 145057849#1 31971359#0 31971359#1 202234068#0 30329931#0 30329931#2 75642284#1 202234065#0 202234065#1 60761760#0 60761760#3 75642281 14811377 202157700#0 202157700#3 12528053#0"/>
    </vehicle>
    <vehicle id="85" depart="4.25">
        <route edges="-202157700#2 -14811377 -84620353#2 -60761760#3 -60761760#2 -202234065#3 -202234065#0 -75642284#1 -30329931#2 -30329931#1 -202234068#2 -31971359#1 -31971359#0 -145057849#1 -145057849#0 -145057844 -202234343 -31971356 -202234344 -237921036"/>
    </vehicle>
    <vehicle id="86" depart="4.30">
        <route edges="-308681382#1 30329931#0 30329931#2 75642284#1 202234065#0 202234065#1 60761760#0 60761760#3 75642281 14811377 202157700#0 202157700#3 12528053#0"/>
    </vehicle>
    <vehicle id="87" depart="4.35">
        <route edges="-26202222#0 -26202222#0.41 -202157700#5 -202157700#2 -14811377 -84620353#2 -60761760#3 -60761760#2 -202234065#3 -202234065#0 -75642284#1 -30329931#2 -30329931#1 14811373#0"/>
    </vehicle>
    <vehicle id="88" depart="4.40">
        <route edges="-1183449794 -84620353#2 -60761760#3 -60761760#2 -202234065#3 -202234065#0 -75642284#1 -30329931#2 -30329931#1 -202234068#2 -31971359#1 -31971359#0 -145057849#1 -145057849#0 -145057844 -202234343 -31971356 240266960 189315784#0"/>
    </vehicle>
    <vehicle id="89" depart="4.45">
        <route edges="-308681382#1 30329931#0 30329931#2 75642284#1 202234065#0 202234065#1 60761760#0 60761760#3 75642281 14811377 202157700#0 202157700#3 12528053#0"/>
    </vehicle>
    <vehicle id="90" depart="4.50">
        <route edges="22293941 81920360#0 -202234065#3 -202234065#0 -75642284#1 -30329931#2 -30329931#1 -202234068#2 -31971359#1 -31971359#0 -145057849#1 -145057849#0 -145057844 -202234343 -31971356 240266960 189315784#0"/>
    </vehicle>
    <vehicle id="91" depart="4.55">
        <route edges="31971359#0 31971359#1 202234068#0 30329931#0 30329931#2 75642284#1 202234065#0 202234065#1 60761760#0 60761760#3 75642281 14811377 202157700#0 202157700#3 12528053#0"/>
    </vehicle>
    <vehicle id="92" depart="4.60">
        <route edges="145057839#2 145057844 145057844.12 145057849#1 31971359#0 31971359#1 202234068#0 30329931#0 30329931#2 75642284#1 202234065#0 202234065#1 60761760#0 60761760#3 75642281 14811377 202157700#0 202157700#3 893429999#1"/>
    </vehicle>
    <vehicle id="93" depart="4.65">
        <route edges="-81920369 -14811383#2 30329931#0 30329931#2 75642284#1 202234065#0 202234065#1 60761760#0 60761760#3 75642281 14811377 202157700#0 202157700#3 12528053#0"/>
    </vehicle>
    <vehicle id="94" depart="4.70">
        <route edges="-180801664 -59617584#4 -12695650#1 -12695650#0 -237921040 -59617619 12695647 31971356 202234343 145057844 145057844.12 145057849#1 31971359#0 31971359#1 202234068#0 30329931#0 30329931#2 75642284#1 202234065#0 202234065#1 60761764#0 203986456#0"/>
    </vehicle>
    <vehicle id="95" depart="4.75">
        <route edges="22293941 81920360#0 -202234065#3 -202234065#0 -75642284#1 -30329931#2 -30329931#1 -202234068#2 -31971359#1 -31971359#0 -145057849#1 -145057849#0 -145057844 -202234343 -31971356 240266960 189315784#0"/>
    </vehicle>
    <vehicle id="96" depart="4.80">
        <route edges="-202157703 -202157700#5 -202157700#2 -14811377 -84620353#2 -60761760#3 -60761760#2 -202234065#3 -202234065#0 -75642284#1 -30329931#2 -30329931#1 -202234068#2 -31971359#1 -31971359#0 -145057849#1 -145057849#0 -145057844 -202234343 -31971356 -202234344 -237921036"/>
    </vehicle>
    <vehicle id="97" depart="4.85">
        <route edges="-26202222#0 -26202222#0.41 -202157700#5 -202157700#2 -14811377 -84620353#2 -60761760#3 -60761760#2 -202234065#3 -202234065#0 -75642284#1 -30329931#2 -30329931#1 -202234068#2 -31971359#1 -31971359#0 -145057849#1 -145057849#0 -145057844 -202234343 -31971356 -202234344 -237921036"/>
    </vehicle>
    <vehicle id="98" depart="4.90">
        <route edges="22293947 -145057849#1 -145057849#0 -145057844 -202234343 -31971356 -202234344 59617619 237921040 12695649 12695650#1 59617584#2 180801664"/>
    </vehicle>
    <vehicle id="99" depart="4.95">
        <route edges="-26202222#0 -26202222#0.41 -202157700#5 -202157700#2 -14811377 -84620353#2 -60761760#3 -60761760#2 -202234065#3 -202234065#0 -75642284#1 -30329931#2 -30329931#1 14811383#1 202234067"/>
    </vehicle>
    <vehicle id="100" depart="5.00">
        <route edges="-26202222#0 -26202222#0.41 -202157700#5 -202157700#2 -14811377 -84620353#2 -60761760#3 -60761760#2 -202234065#3 -202234065#0 -75642284#1 -30329931#2 -30329931#1 -202234068#2 -31971359#1 -31971359#0 -145057849#1 -145057849#0 -145057844 -202234343 -31971356 -202234344 -237921036"/>
    </vehicle>
    <vehicle id="101" depart="5.05">
        <route edges="-202157703 -202157700#5 -202157700#2 -14811377 -84620353#2 -60761760#3 -60761760#2 -202234065#3 -202234065#0 -75642284#1 -30329931#2 -30329931#1 14811383#1 202234067"/>
    </vehicle>
    <vehicle id="102" depart="5.10">
        <route edges="22293941 81920360#0 -202234065#3 -202234065#0 -75642284#1 -30329931#2 -30329931#1 -202234068#2 -31971359#1 -31971359#0 -145057849#1 -145057849#0 -145057844 -202234343 -31971356 -202234344 59617619 237921040 12695649 12695650#1 59617584#2 180801664"/>
    </vehicle>
    <vehicle id="103" depart="5.15">
        <route edges="-14811364#0 202234068#0 30329931#0 30329931#2 75642284#1 202234065#0 202234065#1 60761760#0 60761760#3 75642281 13831317#0"/>
    </vehicle>
    <vehicle id="104" depart="5.20">
        <route edges="202234343 145057844 145057844.12 145057849#1 31971359#0 31971359#1 202234068#0 30329931#0 30329931#2 75642284#1 202234065#0 202234065#1 -81920360#2 -51655434"/>
    </vehicle>
    <vehicle id="105" depart="5.25">
        <route edges="-13831317#2 -13831317#2.34 -84620353#2 -60761760#3 -60761760#2 -202234065#3 -202234065#0 -75642284#1 -30329931#2 -30329931#1 -202234068#2 -31971359#1 -31971359#0 -145057849#1 -145057849#0 -145057844 -202234343 -31971356 -202234344 59617619 237921040 12695649 12695650#1 59617584#2 180801664"/>
    </vehicle>
    <vehicle id="106" depart="5.30">