<?xml version="1.0" encoding="UTF-8"?>

<!-- generated on 2026-04-04T16:10:22.386239+01:00 by Eclipse SUMO duarouter 1.25.0
<duarouterConfiguration xmlns:xsi="http://www.w3.org/2001/XMLSchema-instance" xsi:noNamespaceSchemaLocation="http://sumo.dlr.de/xsd/duarouterConfiguration.xsd">

    <input>
        <net-file value="C:\Users\mogul\OneDrive\Masaüstü\mt_emre\digital_twin\simulation\landau_corridor.net.xml"/>
        <route-files value="C:\Users\mogul\OneDrive\Masaüstü\mt_emre\detector_data_aktuell\new_routeSampler\randomtrips\candidate_trips_seed123.xml"/>
    </input>

    <output>
        <output-file value="C:\Users\mogul\OneDrive\Masaüstü\mt_emre\detector_data_aktuell\new_routeSampler\randomtrips\candidate_trips_seed123.xml.tmp"/>
        <alternatives-output value="NUL"/>
        <write-trips value="true"/>
    </output>

    <processing>
        <remove-loops value="true"/>
        <weights.random-factor value="2.0"/>
    </processing>

    <time>
        <begin value="0.0"/>
        <end value="3600.0"/>
    </time>

    <report>
        <no-warnings value="true"/>
        <ignore-errors value="true"/>
        <no-step-log value="true"/>
    </report>

</duarouterConfiguration>
-->

<routes xmlns:xsi="http://www.w3.org/2001/XMLSchema-instance" xsi:noNamespaceSchemaLocation="http://sumo.dlr.de/xsd/routes_file.xsd">
    <trip id="4" depart="0.02" from="-308681382#1" to="25563346#0"/>
    <trip id="5" depart="0.02" from="-180801664" to="-281402232"/>
    <trip id="6" depart="0.02" from="-180801664" to="14811364#0"/>
    <trip id="10" depart="0.04" from="-26202222#0" to="-281402232"/>
    <trip id="11" depart="0.05" from="-26202222#0" to="308681382#0"/>
    <trip id="20" depart="0.08" from="-1183449794" to="-22293947"/>
    <trip id="22" depart="0.09" from="-13831317#2" to="17707991#0"/>
    <trip id="23" depart="0.10" from="-180801664" to="-22293947"/>
    <trip id="25" depart="0.10" from="-1183449794" to="202234067"/>
    <trip id="27" depart="0.11" from="145057839#2" to="-22293947"/>
    <trip id="32" depart="0.13" from="-203986456#0" to="12528053#0"/>
    <trip id="39" depart="0.16" from="-1183449794" to="189315784#0"/>
    <trip id="46" depart="0.19" from="-13831317#2" to="308681382#0"/>
    <trip id="47" depart="0.19" from="-180801664" to="-281402232"/>
    <trip id="48" depart="0.20" from="22293941" to="-22293947"/>
    <trip id="51" depart="0.21" from="-13831317#2" to="-22293947"/>
    <trip id="54" depart="0.22" from="-13831317#2" to="202234067"/>
    <trip id="55" depart="0.23" from="-203986456#0" to="-281402232"/>
    <trip id="59" depart="0.24" from="145057839#2" to="308681382#0"/>
    <trip id="62" depart="0.26" from="22293941" to="308681382#0"/>
    <trip id="63" depart="0.26" from="22293947" to="-237921036"/>
    <trip id="64" depart="0.27" from="-1183449794" to="14811373#0"/>
    <trip id="66" depart="0.27" from="-203986456#0" to="893429999#1"/>
    <trip id="70" depart="0.29" from="-202157703" to="202234067"/>
    <trip id="71" depart="0.29" from="-14811364#0" to="202234067"/>
    <trip id="74" depart="0.31" from="-308681382#1" to="12528053#0"/>
    <trip id="76" depart="0.32" from="-81920369" to="13831317#0"/>
    <trip id="80" depart="0.33" from="-308681382#1" to="202234067"/>
    <trip id="82" depart="0.34" from="237921036" to="12528053#0"/>
    <trip id="84" depart="0.35" from="-13831317#2" to="-22293947"/>
    <trip id="87" depart="0.36" from="22293941" to="893429999#1"/>
    <trip id="90" depart="0.37" from="237921036" to="308681382#0"/>
    <trip id="91" depart="0.38" from="-202157703" to="308681382#0"/>
    <trip id="97" depart="0.40" from="-1183449794" to="180801664"/>
    <trip id="98" depart="0.41" from="-308681382#1" to="14811364#0"/>
    <trip id="104" depart="0.43" from="-14811373#0" to="-237921036"/>
    <trip id="110" depart="0.46" from="237921036" to="13831317#0"/>
    <trip id="112" depart="0.46" from="-14811373#0" to="12528053#0"/>
    <trip id="114" depart="0.47" from="-13831317#2" to="-237921036"/>
    <trip id="115" depart="0.48" from="-13831317#2" to="202234067"/>
    <trip id="117" depart="0.49" from="-203986456#0" to="13831317#0"/>
    <trip id="118" depart="0.49" from="145057839#2" to="25563346#0"/>
    <trip id="119" depart="0.49" from="-1183449794" to="25563346#0"/>
    <trip id="121" depart="0.50" from="-308681382#1" to="26202222#0"/>
    <trip id="122" depart="0.51" from="-308681382#1" to="-281402232"/>
    <trip id="125" depart="0.52" from="145057839#2" to="180801664"/>
    <trip id="135" depart="0.56" from="-13831317#2" to="180801664"/>
    <trip id="137" depart="0.57" from="125964106" to="180801664"/>
    <trip id="141" depart="0.58" from="-180801664" to="-237921036"/>
    <trip id="143" depart="0.59" from="-203986456#0" to="25563346#0"/>
    <trip id="144" depart="0.60" from="-81920369" to="-22293947"/>
    <trip id="146" depart="0.61" from="-1183449794" to="12528053#0"/>
    <trip id="149" depart="0.62" from="-202157703" to="-22293947"/>
    <trip id="151" depart="0.63" from="22293941" to="189315784#0"/>
    <trip id="153" depart="0.63" from="-308681382#1" to="25563346#0"/>
    <trip id="154" depart="0.64" from="-81920369" to="308681382#0"/>
    <trip id="156" depart="0.65" from="-202157703" to="-281402232"/>
    <trip id="157" depart="0.65" from="-180801664" to="14811364#0"/>
    <trip id="158" depart="0.66" from="-1183449794" to="-281402232"/>
    <trip id="168" depart="0.70" from="145057839#2" to="13831317#0"/>
    <trip id="172" depart="0.71" from="-202157703" to="180801664"/>
    <trip id="175" depart="0.73" from="-81920369" to="-281402232"/>
    <trip id="178" depart="0.74" from="22293947" to="-281402232"/>
    <trip id="183" depart="0.76" from="-180801664" to="12528053#0"/>
    <trip id="188" depart="0.78" from="-180801664" to="308681382#0"/>
    <trip id="190" depart="0.79" from="-26202222#0" to="-237921036"/>
    <trip id="191" depart="0.79" from="-203986456#0" to="189315784#0"/>
    <trip id="193" depart="0.80" from="-203986456#0" to="14811373#0"/>
    <trip id="195" depart="0.81" from="-26202222#0" to="308681382#0"/>
    <trip id="196" depart="0.81" from="22293941" to="25563346#0"/>
    <trip id="197" depart="0.82" from="237921036" to="12528053#0"/>
    <trip id="201" depart="0.83" from="-308681382#1" to="202234067"/>
    <trip id="203" depart="0.84" from="-13831317#2" to="26202222#0"/>
    <trip id="206" depart="0.85" from="-14811364#0" to="12528053#0"/>
    <trip id="208" depart="0.86" from="-308681382#1" to="893429999#1"/>
    <trip id="211" depart="0.88" from="237921036" to="13831317#0"/>
    <trip id="212" depart="0.88" from="125964106" to="180801664"/>
    <trip id="214" depart="0.89" from="-14811373#0" to="13831317#0"/>
    <trip id="217" depart="0.90" from="-180801664" to="-22293947"/>
    <trip id="218" depart="0.90" from="22293941" to="308681382#0"/>
    <trip id="221" depart="0.92" from="22293941" to="-281402232"/>
    <trip id="226" depart="0.94" from="-1183449794" to="-281402232"/>
    <trip id="229" depart="0.95" from="-26202222#0" to="189315784#0"/>
    <trip id="231" depart="0.96" from="145057839#2" to="202234067"/>
    <trip id="233" depart="0.97" from="281402232" to="180801664"/>
    <trip id="238" depart="0.99" from="237921036" to="25563346#0"/>
    <trip id="240" depart="1.00" from="-202157703" to="14811373#0"/>
    <trip id="241" depart="1.00" from="-81920369" to="26202222#0"/>
    <trip id="244" depart="1.01" from="-26202222#0" to="893429999#1"/>
    <trip id="245" depart="1.02" from="-180801664" to="308681382#0"/>
    <trip id="260" depart="1.08" from="-180801664" to="26202222#0"/>
    <trip id="263" depart="1.09" from="22293941" to="14811364#0"/>
    <trip id="265" depart="1.10" from="-13831317#2" to="189315784#0"/>
    <trip id="268" depart="1.11" from="237921036" to="26202222#0"/>
    <trip id="269" depart="1.12" from="-308681382#1" to="-22293947"/>
    <trip id="271" depart="1.12" from="-1183449794" to="180801664"/>
    <trip id="277" depart="1.15" from="-308681382#1" to="-281402232"/>
    <trip id="278" depart="1.15" from="22293941" to="-281402232"/>
    <trip id="284" depart="1.18" from="-180801664" to="202234067"/>
    <trip id="285" depart="1.18" from="281402232" to="-237921036"/>
    <trip id="288" depart="1.19" from="-202157703" to="17707991#0"/>
    <trip id="289" depart="1.20" from="-308681382#1" to="25563346#0"/>
    <trip id="290" depart="1.20" from="-26202222#0" to="17707991#0"/>
    <trip id="292" depart="1.21" from="-26202222#0" to="-237921036"/>
    <trip id="293" depart="1.22" from="145057839#2" to="180801664"/>
    <trip id="294" depart="1.22" from="-180801664" to="308681382#0"/>
    <trip id="295" depart="1.22" from="22293941" to="-22293947"/>
    <trip id="298" depart="1.24" from="-14811373#0" to="12528053#0"/>
    <trip id="303" depart="1.26" from="-203986456#0" to="25563346#0"/>
    <trip id="305" depart="1.26" from="145057839#2" to="-237921036"/>
    <trip id="306" depart="1.27" from="22293941" to="14811364#0"/>
    <trip id="309" depart="1.28" from="-1183449794" to="-237921036"/>
    <trip id="310" depart="1.29" from="-203986456#0" to="202234067"/>
    <trip id="315" depart="1.31" from="-14811373#0" to="893429999#1"/>
    <trip id="318" depart="1.32" from="-13831317#2" to="14811373#0"/>
    <trip id="321" depart="1.33" from="-308681382#1" to="189315784#0"/>
    <trip id="323" depart="1.34" from="-1183449794" to="25563346#0"/>
    <trip id="324" depart="1.34" from="125964106" to="180801664"/>
    <trip id="332" depart="1.38" from="22293941" to="-281402232"/>
    <trip id="334" depart="1.39" from="-81920369" to="180801664"/>
    <trip id="335" depart="1.39" from="22293941" to="14811373#0"/>
    <trip id="338" depart="1.40" from="-26202222#0" to="202234067"/>
    <trip id="342" depart="1.42" from="125964106" to="-281402232"/>
    <trip id="343" depart="1.42" from="-14811364#0" to="13831317#0"/>
    <trip id="346" depart="1.44" from="-1183449794" to="14811373#0"/>
    <trip id="348" depart="1.44" from="-180801664" to="25563346#0"/>
    <trip id="354" depart="1.47" from="-308681382#1" to="25563346#0"/>
    <trip id="356" depart="1.48" from="-81920369" to="180801664"/>
    <trip id="357" depart="1.48" from="22293947" to="180801664"/>
    <trip id="358" depart="1.48" from="-14811373#0" to="12528053#0"/>
    <trip id="360" depart="1.49" from="-81920369" to="-237921036"/>
    <trip id="361" depart="1.50" from="-26202222#0" to="17707991#0"/>
    <trip id="362" depart="1.50" from="-308681382#1" to="202234067"/>
    <trip id="364" depart="1.51" from="125964106" to="180801664"/>
    <trip id="366" depart="1.52" from="-14811373#0" to="12528053#0"/>
    <trip id="369" depart="1.53" from="-202157703" to="308681382#0"/>
    <trip id="371" depart="1.54" from="-81920369" to="-237921036"/>
    <trip id="372" depart="1.54" from="-202157703" to="17707991#0"/>
    <trip id="376" depart="1.56" from="-13831317#2" to="14811364#0"/>
    <trip id="379" depart="1.57" from="281402232" to="-237921036"/>
    <trip id="382" depart="1.58" from="-13831317#2" to="-281402232"/>
    <trip id="383" depart="1.59" from="145057839#2" to="13831317#0"/>
    <trip id="385" depart="1.60" from="-14811364#0" to="893429999#1"/>
    <trip id="389" depart="1.61" from="-81920369" to="189315784#0"/>
    <trip id="394" depart="1.63" from="-202157703" to="202234067"/>
    <trip id="396" depart="1.64" from="22293941" to="13831317#0"/>
    <trip id="397" depart="1.65" from="-308681382#1" to="189315784#0"/>
    <trip id="399" depart="1.65" from="22293941" to="180801664"/>
    <trip id="402" depart="1.67" from="-202157703" to="-237921036"/>
    <trip id="405" depart="1.68" from="-203986456#0" to="180801664"/>
    <trip id="407" depart="1.69" from="281402232" to="180801664"/>
    <trip id="413" depart="1.71" from="-308681382#1" to="-22293947"/>
    <trip id="418" depart="1.73" from="-81920369" to="-22293947"/>
    <trip id="419" depart="1.74" from="-203986456#0" to="14811373#0"/>
    <trip id="420" depart="1.74" from="22293941" to="12528053#0"/>
    <trip id="421" depart="1.75" from="22293947" to="189315784#0"/>
    <trip id="423" depart="1.75" from="-14811373#0" to="202234067"/>
    <trip id="426" depart="1.77" from="-308681382#1" to="-281402232"/>
    <trip id="436" depart="1.81" from="237921036" to="26202222#0"/>
    <trip id="437" depart="1.81" from="-202157703" to="202234067"/>
    <trip id="438" depart="1.82" from="22293941" to="25563346#0"/>
    <trip id="439" depart="1.82" from="-26202222#0" to="-281402232"/>
    <trip id="443" depart="1.84" from="-202157703" to="893429999#1"/>
    <trip id="447" depart="1.85" from="-81920369" to="-281402232"/>
    <trip id="449" depart="1.86" from="-308681382#1" to="189315784#0"/>
    <trip id="452" depart="1.87" from="-203986456#0" to="202234067"/>
    <trip id="454" depart="1.88" from="-308681382#1" to="14811373#0"/>
    <trip id="457" depart="1.90" from="-202157703" to="14811364#0"/>
    <trip id="458" depart="1.90" from="-81920369" to="26202222#0"/>
    <trip id="459" depart="1.90" from="-1183449794" to="180801664"/>
    <trip id="463" depart="1.92" from="237921036" to="893429999#1"/>
    <trip id="465" depart="1.93" from="-26202222#0" to="180801664"/>
    <trip id="466" depart="1.93" from="22293941" to="-237921036"/>
    <trip id="473" depart="1.96" from="125964106" to="-237921036"/>
    <trip id="474" depart="1.97" from="-14811373#0" to="-237921036"/>
    <trip id="476" depart="1.97" from="-1182936853" to="12528053#0"/>
    <trip id="479" depart="1.99" from="237921036" to="-281402232"/>
    <trip id="482" depart="2.00" from="22293941" to="13831317#0"/>
    <trip id="485" depart="2.01" from="237921036" to="25563346#0"/>
    <trip id="488" depart="2.02" from="-1183449794" to="189315784#0"/>
    <trip id="490" depart="2.03" from="145057839#2" to="25563346#0"/>
    <trip id="491" depart="2.04" from="145057839#2" to="25563346#0"/>
    <trip id="492" depart="2.04" from="-81920369" to="26202222#0"/>
    <trip id="495" depart="2.05" from="-13831317#2" to="14811373#0"/>
    <trip id="496" depart="2.06" from="145057839#2" to="202234067"/>
    <trip id="497" depart="2.06" from="237921036" to="13831317#0"/>
    <trip id="502" depart="2.08" from="-14811373#0" to="12528053#0"/>
    <trip id="503" depart="2.09" from="-308681382#1" to="12528053#0"/>
    <trip id="504" depart="2.09" from="-308681382#1" to="14811373#0"/>
    <trip id="505" depart="2.09" from="-180801664" to="26202222#0"/>
    <trip id="506" depart="2.10" from="145057839#2" to="13831317#0"/>
    <trip id="507" depart="2.10" from="22293947" to="-237921036"/>
    <trip id="510" depart="2.12" from="-202157703" to="-22293947"/>
    <trip id="511" depart="2.12" from="-13831317#2" to="26202222#0"/>
    <trip id="512" depart="2.12" from="-13831317#2" to="17707991#0"/>
    <trip id="514" depart="2.13" from="-13831317#2" to="202234067"/>
    <trip id="517" depart="2.14" from="-308681382#1" to="-281402232"/>
    <trip id="519" depart="2.15" from="-203986456#0" to="893429999#1"/>
    <trip id="521" depart="2.16" from="-203986456#0" to="-237921036"/>
    <trip id="525" depart="2.18" from="-202157703" to="893429999#1"/>
    <trip id="532" depart="2.21" from="145057839#2" to="13831317#0"/>
    <trip id="535" depart="2.22" from="-180801664" to="13831317#0"/>
    <trip id="539" depart="2.24" from="-180801664" to="-237921036"/>
    <trip id="542" depart="2.25" from="-1183449794" to="-281402232"/>
    <trip id="544" depart="2.26" from="-1183449794" to="-281402232"/>
    <trip id="553" depart="2.29" from="-203986456#0" to="14811373#0"/>
    <trip id="556" depart="2.31" from="-308681382#1" to="14811373#0"/>
    <trip id="559" depart="2.32" from="22293941" to="180801664"/>
    <trip id="561" depart="2.33" from="-308681382#1" to="202234067"/>
    <trip id="563" depart="2.34" from="-202157703" to="14811373#0"/>
    <trip id="566" depart="2.35" from="22293941" to="-237921036"/>
    <trip id="568" depart="2.36" from="-308681382#1" to="25563346#0"/>
    <trip id="573" depart="2.38" from="-14811373#0" to="25563346#0"/>
    <trip id="574" depart="2.38" from="-14811364#0" to="13831317#0"/>
    <trip id="575" depart="2.38" from="-26202222#0" to="17707991#0"/>
    <trip id="578" depart="2.40" from="145057839#2" to="202234067"/>
    <trip id="579" depart="2.40" from="-1183449794" to="13831317#0"/>
    <trip id="581" depart="2.41" from="-1183449794" to="180801664"/>
    <trip id="585" depart="2.43" from="-202157703" to="14811364#0"/>
    <trip id="587" depart="2.43" from="-14811373#0" to="-22293947"/>
    <trip id="588" depart="2.44" from="-180801664" to="12528053#0"/>
    <trip id="594" depart="2.46" from="22293941" to="-281402232"/>
    <trip id="595" depart="2.47" from="281402232" to="-237921036"/>
    <trip id="601" depart="2.49" from="-308681382#1" to="-22293947"/>
    <trip id="603" depart="2.50" from="-81920369" to="-237921036"/>
    <trip id="604" depart="2.51" from="-1183449794" to="189315784#0"/>
    <trip id="610" depart="2.53" from="-26202222#0" to="180801664"/>
    <trip id="612" depart="2.54" from="22293947" to="180801664"/>
    <trip id="615" depart="2.55" from="22293941" to="-22293947"/>
    <trip id="617" depart="2.56" from="-202157703" to="14811364#0"/>
    <trip id="620" depart="2.57" from="-81920369" to="180801664"/>
    <trip id="625" depart="2.59" from="-180801664" to="25563346#0"/>
    <trip id="628" depart="2.60" from="-308681382#1" to="202234067"/>
    <trip id="633" depart="2.63" from="237921036" to="893429999#1"/>
    <trip id="634" depart="2.63" from="-26202222#0" to="14811364#0"/>
    <trip id="636" depart="2.64" from="-26202222#0" to="893429999#1"/>
    <trip id="637" depart="2.64" from="237921036" to="13831317#0"/>
    <trip id="645" depart="2.68" from="-180801664" to="-281402232"/>
    <trip id="648" depart="2.69" from="-203986456#0" to="14811373#0"/>
    <trip id="649" depart="2.69" from="-203986456#0" to="202234067"/>
    <trip id="650" depart="2.70" from="-14811373#0" to="13831317#0"/>
    <trip id="658" depart="2.73" from="-308681382#1" to="-22293947"/>
    <trip id="666" depart="2.76" from="-14811373#0" to="189315784#0"/>
    <trip id="675" depart="2.80" from="-202157703" to="202234067"/>
    <trip id="677" depart="2.81" from="-180801664" to="14811364#0"/>
    <trip id="678" depart="2.81" from="145057839#2" to="14811364#0"/>
    <trip id="680" depart="2.82" from="-13831317#2" to="14811373#0"/>
    <trip id="686" depart="2.85" from="-180801664" to="13831317#0"/>
    <trip id="687" depart="2.85" from="-26202222#0" to="14811373#0"/>
    <trip id="688" depart="2.85" from="-1183449794" to="14811373#0"/>
    <trip id="690" depart="2.86" from="-203986456#0" to="-22293947"/>
    <trip id="691" depart="2.87" from="-203986456#0" to="-281402232"/>
    <trip id="696" depart="2.89" from="-203986456#0" to="189315784#0"/>
    <trip id="697" depart="2.89" from="-203986456#0" to="202234067"/>
    <trip id="698" depart="2.89" from="-13831317#2" to="-281402232"/>
    <trip id="699" depart="2.90" from="22293941" to="189315784#0"/>
    <trip id="700" depart="2.90" from="237921036" to="-281402232"/>
    <trip id="702" depart="2.91" from="-308681382#1" to="893429999#1"/>
    <trip id="704" depart="2.92" from="-14811373#0" to="-281402232"/>
    <trip id="706" depart="2.93" from="-180801664" to="893429999#1"/>
    <trip id="712" depart="2.95" from="-203986456#0" to="12528053#0"/>
    <trip id="719" depart="2.98" from="237921036" to="13831317#0"/>
    <trip id="725" depart="3.01" from="-14811364#0" to="202234067"/>
    <trip id="731" depart="3.03" from="-81920369" to="-237921036"/>
    <trip id="737" depart="3.06" from="145057839#2" to="180801664"/>
    <trip id="742" depart="3.08" from="-14811373#0" to="893429999#1"/>
    <trip id="750" depart="3.11" from="-14811373#0" to="14811364#0"/>
    <trip id="752" depart="3.12" from="-203986456#0" to="14811373#0"/>
    <trip id="754" depart="3.13" from="22293941" to="13831317#0"/>
    <trip id="757" depart="3.14" from="237921036" to="180801664"/>
    <trip id="761" depart="3.16" from="22293941" to="-22293947"/>
    <trip id="768" depart="3.19" from="-308681382#1" to="-281402232"/>
    <trip id="780" depart="3.24" from="22293941" to="12528053#0"/>
    <trip id="782" depart="3.24" from="-202157703" to="308681382#0"/>
    <trip id="788" depart="3.27" from="-13831317#2" to="26202222#0"/>
    <trip id="792" depart="3.28" from="-308681382#1" to="26202222#0"/>
    <trip id="793" depart="3.29" from="22293941" to="-237921036"/>
    <trip id="795" depart="3.30" from="-1183449794" to="189315784#0"/>
    <trip id="796" depart="3.30" from="-26202222#0" to="202234067"/>
    <trip id="806" depart="3.34" from="237921036" to="180801664"/>
    <trip id="807" depart="3.35" from="-13831317#2" to="308681382#0"/>
    <trip id="808" depart="3.35" from="-81920369" to="14811364#0"/>
    <trip id="811" depart="3.36" from="-13831317#2" to="12528053#0"/>
    <trip id="814" depart="3.38" from="-203986456#0" to="202234067"/>
    <trip id="815" depart="3.38" from="-26202222#0" to="180801664"/>
    <trip id="819" depart="3.40" from="-203986456#0" to="202234067"/>
    <trip id="834" depart="3.46" from="145057839#2" to="25563346#0"/>
    <trip id="836" depart="3.47" from="-180801664" to="25563346#0"/>
    <trip id="840" depart="3.48" from="-81920369" to="-281402232"/>
    <trip id="843" depart="3.50" from="-14811364#0" to="25563346#0"/>
    <trip id="844" depart="3.50" from="-308681382#1" to="893429999#1"/>
    <trip id="845" depart="3.50" from="-308681382#1" to="-22293947"/>
    <trip id="851" depart="3.53" from="-308681382#1" to="26202222#0"/>
    <trip id="852" depart="3.53" from="-180801664" to="26202222#0"/>
    <trip id="856" depart="3.55" from="-81920369" to="893429999#1"/>
    <trip id="858" depart="3.56" from="145057839#2" to="180801664"/>
    <trip id="859" depart="3.56" from="-14811373#0" to="-22293947"/>
    <trip id="860" depart="3.57" from="-14811373#0" to="-237921036"/>
    <trip id="861" depart="3.57" from="-26202222#0" to="-281402232"/>
    <trip id="862" depart="3.58" from="-13831317#2" to="-22293947"/>
    <trip id="864" depart="3.58" from="22293947" to="-237921036"/>
    <trip id="867" depart="3.60" from="-14811373#0" to="12528053#0"/>
    <trip id="871" depart="3.61" from="-202157703" to="189315784#0"/>
    <trip id="872" depart="3.62" from="125964106" to="180801664"/>
    <trip id="875" depart="3.63" from="-203986456#0" to="180801664"/>
    <trip id="876" depart="3.63" from="145057839#2" to="202234067"/>
    <trip id="878" depart="3.64" from="-14811364#0" to="13831317#0"/>
    <trip id="885" depart="3.67" from="22293941" to="189315784#0"/>
    <trip id="886" depart="3.67" from="-13831317#2" to="202234067"/>
    <trip id="887" depart="3.68" from="-308681382#1" to="202234067"/>
    <trip id="894" depart="3.71" from="22293947" to="180801664"/>
    <trip id="895" depart="3.71" from="-308681382#1" to="26202222#0"/>
    <trip id="896" depart="3.72" from="-180801664" to="-281402232"/>
    <trip id="899" depart="3.73" from="-14811373#0" to="13831317#0"/>
    <trip id="900" depart="3.73" from="125964106" to="-281402232"/>
    <trip id="901" depart="3.74" from="-81920369" to="13831317#0"/>
    <trip id="903" depart="3.75" from="-81920369" to="-281402232"/>
    <trip id="906" depart="3.76" from="-13831317#2" to="-22293947"/>
    <trip id="909" depart="3.77" from="-13831317#2" to="202234067"/>
    <trip id="915" depart="3.79" from="-81920369" to="13831317#0"/>
    <trip id="918" depart="3.81" from="125964106" to="180801664"/>
    <trip id="923" depart="3.83" from="-26202222#0" to="-281402232"/>
    <trip id="924" depart="3.83" from="-308681382#1" to="202234067"/>
    <trip id="928" depart="3.85" from="-14811364#0" to="26202222#0"/>
    <trip id="929" depart="3.85" from="-308681382#1" to="-237921036"/>
    <trip id="931" depart="3.86" from="-1183449794" to="893429999#1"/>
    <trip id="933" depart="3.87" from="-81920369" to="189315784#0"/>
    <trip id="935" depart="3.88" from="-13831317#2" to="308681382#0"/>
    <trip id="940" depart="3.90" from="-14811373#0" to="26202222#0"/>
    <trip id="945" depart="3.92" from="-202157703" to="14811373#0"/>
    <trip id="946" depart="3.92" from="-180801664" to="-22293947"/>
    <trip id="947" depart="3.93" from="-308681382#1" to="26202222#0"/>
    <trip id="957" depart="3.97" from="-14811364#0" to="12528053#0"/>
    <trip id="958" depart="3.97" from="22293941" to="308681382#0"/>
    <trip id="959" depart="3.98" from="-1183449794" to="12528053#0"/>
    <trip id="961" depart="3.99" from="-26202222#0" to="189315784#0"/>
    <trip id="962" depart="3.99" from="-81920369" to="14811373#0"/>
    <trip id="965" depart="4.00" from="22293947" to="-237921036"/>
    <trip id="966" depart="4.01" from="-26202222#0" to="-281402232"/>
    <trip id="967" depart="4.01" from="-202157703" to="-237921036"/>
    <trip id="968" depart="4.01" from="-26202222#0" to="893429999#1"/>
    <trip id="970" depart="4.02" from="22293941" to="26202222#0"/>
    <trip id="971" depart="4.03" from="-203986456#0" to="14811364#0"/>
    <trip id="972" depart="4.03" from="145057839#2" to="189315784#0"/>
    <trip id="973" depart="4.04" from="-81920369" to="26202222#0"/>
    <trip id="983" depart="4.08" from="-202157703" to="14811364#0"/>
    <trip id="985" depart="4.09" from="-203986456#0" to="-22293947"/>
    <trip id="986" depart="4.09" from="-26202222#0" to="-281402232"/>
    <trip id="988" depart="4.10" from="-13831317#2" to="14811373#0"/>
    <trip id="989" depart="4.10" from="22293941" to="13831317#0"/>
    <trip id="996" depart="4.13" from="-1183449794" to="13831317#0"/>
    <trip id="998" depart="4.14" from="-14811373#0" to="-22293947"/>
    <trip id="1002" depart="4.16" from="-203986456#0" to="12528053#0"/>
    <trip id="1007" depart="4.18" from="-14811373#0" to="25563346#0"/>
    <trip id="1011" depart="4.19" from="22293947" to="-237921036"/>
    <trip id="1012" depart="4.20" from="-1183449794" to="189315784#0"/>
    <trip id="1013" depart="4.20" from="22293941" to="14811364#0"/>
    <trip id="1015" depart="4.21" from="-180801664" to="-22293947"/>
    <trip id="1019" depart="4.23" from="-13831317#2" to="-237921036"/>
    <trip id="1022" depart="4.24" from="-1183449794" to="12528053#0"/>
    <trip id="1026" depart="4.26" from="22293941" to="25563346#0"/>
    <trip id="1030" depart="4.27" from="-81920369" to="-237921036"/>
    <trip id="1032" depart="4.28" from="-26202222#0" to="308681382#0"/>
    <trip id="1033" depart="4.28" from="-14811364#0" to="25563346#0"/>
    <trip id="1034" depart="4.29" from="-308681382#1" to="180801664"/>
    <trip id="1039" depart="4.31" from="-203986456#0" to="12528053#0"/>
    <trip id="1040" depart="4.31" from="-308681382#1" to="25563346#0"/>
    <trip id="1042" depart="4.32" from="22293941" to="308681382#0"/>
    <trip id="1043" depart="4.33" from="-202157703" to="180801664"/>
    <trip id="1049" depart="4.35" from="-1183449794" to="25563346#0"/>
    <trip id="1058" depart="4.39" from="-1183449794" to="308681382#0"/>
    <trip id="1065" depart="4.42" from="237921036" to="14811364#0"/>
    <trip id="1066" depart="4.42" from="-202157703" to="189315784#0"/>
    <trip id="1067" depart="4.43" from="-202157703" to="17707991#0"/>
    <trip id="1069" depart="4.43" from="-203986456#0" to="25563346#0"/>
    <trip id="1070" depart="4.44" from="-14811373#0" to="25563346#0"/>
    <trip id="1073" depart="4.45" from="22293941" to="893429999#1"/>
    <trip id="1074" depart="4.45" from="-13831317#2" to="180801664"/>
    <trip id="1075" depart="4.46" from="237921036" to="13831317#0"/>
    <trip id="1076" depart="4.46" from="-203986456#0" to="13831317#0"/>
    <trip id="1078" depart="4.47" from="22293941" to="202234067"/>
    <trip id="1079" depart="4.48" from="-1183449794" to="-281402232"/>
    <trip id="1080" depart="4.48" from="-1183449794" to="-281402232"/>
    <trip id="1082" depart="4.49" from="125964106" to="-237921036"/>
    <trip id="1086" depart="4.50" from="-1183449794" to="-237921036"/>
    <trip id="1087" depart="4.51" from="-203986456#0" to="-237921036"/>
    <trip id="1088" depart="4.51" from="-81920369" to="12528053#0"/>
    <trip id="1090" depart="4.52" from="-81920369" to="12528053#0"/>
    <trip id="1096" depart="4.55" from="-26202222#0" to="-237921036"/>
    <trip id="1098" depart="4.55" from="145057839#2" to="26202222#0"/>
    <trip id="1100" depart="4.56" from="145057839#2" to="189315784#0"/>
    <trip id="1103" depart="4.57" from="-202157703" to="308681382#0"/>
    <trip id="1107" depart="4.59" from="281402232" to="180801664"/>
    <trip id="1109" depart="4.60" from="-180801664" to="14811364#0"/>
    <trip id="1112" depart="4.61" from="125964106" to="-237921036"/>
    <trip id="1121" depart="4.65" from="-13831317#2" to="180801664"/>
    <trip id="1123" depart="4.66" from="-14811364#0" to="893429999#1"/>
    <trip id="1124" depart="4.66" from="-308681382#1" to="14811364#0"/>
    <trip id="1130" depart="4.69" from="-81920369" to="12528053#0"/>
    <trip id="1136" depart="4.71" from="-14811373#0" to="-22293947"/>
    <trip id="1137" depart="4.72" from="-203986456#0" to="13831317#0"/>
    <trip id="1138" depart="4.72" from="-81920369" to="-237921036"/>
    <trip id="1140" depart="4.73" from="145057839#2" to="180801664"/>
    <trip id="1141" depart="4.73" from="-14811364#0" to="308681382#0"/>
    <trip id="1144" depart="4.74" from="-26202222#0" to="180801664"/>
    <trip id="1149" depart="4.77" from="-202157703" to="17707991#0"/>
    <trip id="1154" depart="4.79" from="-1183449794" to="-281402232"/>
    <trip id="1156" depart="4.79" from="-26202222#0" to="14811373#0"/>
    <trip id="1158" depart="4.80" from="-203986456#0" to="26202222#0"/>
    <trip id="1159" depart="4.81" from="237921036" to="308681382#0"/>
    <trip id="1161" depart="4.82" from="-26202222#0" to="308681382#0"/>
    <trip id="1162" depart="4.82" from="-203986456#0" to="308681382#0"/>
    <trip id="1163" depart="4.82" from="-202157703" to="189315784#0"/>