<?xml version="1.0" encoding="UTF-8"?>

<routes xmlns:xsi="http://www.w3.org/2001/XMLSchema-instance" xsi:noNamespaceSchemaLocation="http://sumo.dlr.de/xsd/routes_file.xsd" departLane="best" departSpeed="max" type="trafficMix" >
<!-- begin="0.0" end="3600.0" -->
    <vehicle id="0" depart="0.04" departLane="best" departSpeed="max" type="trafficMix" >
        <route edges="237921036 237921036.41 -281402235#1 -281402232"/>
    </vehicle>
    <vehicle id="1" depart="0.11" departLane="best" departSpeed="max" type="trafficMix" >
        <route edges="-180801664 -59617584#4 -12695650#1 -12695650#0 -237921040 -59617619 -237921036"/>
    </vehicle>
    <vehicle id="2" depart="0.48" departLane="best" departSpeed="max" type="trafficMix" >
        <route edges="-26202222#0 -26202222#0.41 -202157700#5 -202157700#2 -14811377 -84620353#2 -60761760#3 -60761760#2 -202234065#3 -202234065#0 -75642284#1 -30329931#2 -30329931#1 -202234068#2 -31971359#1 -31971359#0 -145057849#1 -145057849#0 -145057844 -202234343 -31971356 -202234344 -281402235#1 -281402232"/>
    </vehicle>
    <vehicle id="3" depart="0.82" departLane="best" departSpeed="max" type="trafficMix" >
        <route edges="-180801664 -59617584#4 -12695650#1 -12695650#0 -237921040 -59617619 -237921036"/>
    </vehicle>
    <vehicle id="4" depart="2.15" departLane="best" departSpeed="max" type="trafficMix" >
        <route edges="237921036 237921036.41 12695647 31971356 202234343 145057844 145057844.12 145057849#1 31971359#0 31971359#1 202234068#0 30329931#0 30329931#2 75642284#1 202234065#0 202234065#1 60761760#0 60761760#3 75642281 14811377 202157700#0 202157700#3 12528053#0"/>
    </vehicle>
    <vehicle id="5" depart="2.35" departLane="best" departSpeed="max" type="trafficMix" >
        <route edges="-180801664 -59617584#4 -12695650#1 -12695650#0 -237921040 -59617619 12695647 31971356 202234343 145057844 145057844.12 145057849#1 31971359#0 31971359#1 202234068#0 30329931#0 30329931#2 75642284#1 202234065#0 202234065#1 60761760#0 60761760#3 75642281 14811377 202157700#0 202157700#3 26202222#0"/>
    </vehicle>
    <vehicle id="6" depart="3.40" departLane="best" departSpeed="max" type="trafficMix" >
        <route edges="-180801664 -59617584#4 -12695650#1 -12695650#0 -237921040 -59617619 -281402235#1 -281402232"/>
    </vehicle>
    <vehicle id="7" depart="4.00" departLane="best" departSpeed="max" type="trafficMix" >
        <route edges="237921036 237921036.41 -281402235#1 -281402232"/>
    </vehicle>
    <vehicle id="8" depart="4.87" departLane="best" departSpeed="max" type="trafficMix" >
        <route edges="237921036 237921036.41 59617619 237921040 12695649 12695650#1 59617584#2 180801664"/>
    </vehicle>
    <vehicle id="9" depart="5.31" departLane="best" departSpeed="max" type="trafficMix" >
        <route edges="237921036 237921036.41 59617619 237921040 12695649 12695650#1 59617584#2 180801664"/>
    </vehicle>
    <vehicle id="10" depart="5.63" departLane="best" departSpeed="max" type="trafficMix" >
        <route edges="-180801664 -59617584#4 -12695650#1 -12695650#0 -237921040 -59617619 12695647 31971356 202234343 145057844 145057844.12 145057849#1 31971359#0 31971359#1 202234068#0 30329931#0 30329931#2 75642284#1 202234065#0 202234065#1 60761760#0 60761760#3 75642281 14811377 202157700#0 202157700#3 26202222#0"/>
    </vehicle>
    <vehicle id="11" depart="7.17" departLane="best" departSpeed="max" type="trafficMix" >
        <route edges="237921036 237921036.41 12695647 31971356 202234343 145057844 145057844.12 145057849#1 31971359#0 31971359#1 202234068#0 30329931#0 30329931#2 75642284#1 202234065#0 202234065#1 60761760#0 60761760#3 75642281 14811377 202157700#0 202157700#3 12528053#0"/>
    </vehicle>
    <vehicle id="12" depart="13.75" departLane="best" departSpeed="max" type="trafficMix" >
        <route edges="-26202222#0 -26202222#0.41 -202157700#5 -202157700#2 -14811377 -84620353#2 -60761760#3 -60761760#2 -202234065#3 -202234065#0 -75642284#1 -30329931#2 -30329931#1 -202234068#2 -31971359#1 -31971359#0 -145057849#1 -145057849#0 -145057844 -202234343 -31971356 -202234344 -237921036"/>
    </vehicle>
    <vehicle id="13" depart="15.07" departLane="best" departSpeed="max" type="trafficMix" >
        <route edges="237921036 237921036.41 59617619 237921040 12695649 12695650#1 59617584#2 180801664"/>
    </vehicle>
    <vehicle id="14" depart="15.71" departLane="best" departSpeed="max" type="trafficMix" >
        <route edges="-1182936853 12528053#0"/>
    </vehicle>
    <vehicle id="15" depart="19.13" departLane="best" departSpeed="max" type="trafficMix" >
        <route edges="-202157703 -202157700#5 -202157700#2 -14811377 -84620353#2 -60761760#3 -60761760#2 -202234065#3 -202234065#0 -75642284#1 -30329931#2 -30329931#1 -202234068#2 -31971359#1 -31971359#0 -145057849#1 -145057849#0 -145057844 -202234343 -31971356 -202234344 59617619 237921040 12695649 12695650#1 59617584#2 180801664"/>
    </vehicle>
    <vehicle id="16" depart="19.82" departLane="best" departSpeed="max" type="trafficMix" >
        <route edges="-202157703 -202157700#5 -202157700#2 -14811377 -84620353#2 -60761760#3 -60761760#2 -202234065#3 -202234065#0 -75642284#1 -30329931#2 -30329931#1 -202234068#2 -31971359#1 -31971359#0 -145057849#1 -145057849#0 -145057844 -202234343 -31971356 -202234344 59617619 237921040 12695649 12695650#1 59617584#2 180801664"/>
    </vehicle>
    <vehicle id="17" depart="21.77" departLane="best" departSpeed="max" type="trafficMix" >
        <route edges="237921036 237921036.41 12695647 31971356 202234343 145057844 145057844.12 145057849#1 31971359#0 31971359#1 202234068#0 30329931#0 30329931#2 75642284#1 202234065#0 202234065#1 60761760#0 60761760#3 75642281 14811377 202157700#0 202157700#3 12528053#0"/>
    </vehicle>
    <vehicle id="18" depart="22.96" departLane="best" departSpeed="max" type="trafficMix" >
        <route edges="-202157703 893429999#1"/>
    </vehicle>
    <vehicle id="19" depart="23.27" departLane="best" departSpeed="max" type="trafficMix" >
        <route edges="-1182936853 26202222#0"/>
    </vehicle>
    <vehicle id="20" depart="24.76" departLane="best" departSpeed="max" type="trafficMix" >
        <route edges="-180801664 -59617584#4 -12695650#1 -12695650#0 -237921040 -59617619 -237921036"/>
    </vehicle>
    <vehicle id="21" depart="25.14" departLane="best" departSpeed="max" type="trafficMix" >
        <route edges="-202157703 -202157700#5 -202157700#2 -14811377 -84620353#2 -60761760#3 -60761760#2 -202234065#3 -202234065#0 -75642284#1 -30329931#2 -30329931#1 -202234068#2 -31971359#1 -31971359#0 -145057849#1 -145057849#0 -145057844 -202234343 -31971356 -202234344 59617619 237921040 12695649 12695650#1 59617584#2 180801664"/>
    </vehicle>
    <vehicle id="22" depart="27.59" departLane="best" departSpeed="max" type="trafficMix" >
        <route edges="-180801664 -59617584#4 -12695650#1 -12695650#0 -237921040 -59617619 12695647 31971356 202234343 145057844 145057844.12 145057849#1 -22293947"/>
    </vehicle>
    <vehicle id="23" depart="28.23" departLane="best" departSpeed="max" type="trafficMix" >
        <route edges="-180801664 -59617584#4 -12695650#1 -12695650#0 -237921040 -59617619 12695647 31971356 202234343 145057844 145057844.12 145057849#1 31971359#0 31971359#1 202234068#0 30329931#0 30329931#2 75642284#1 202234065#0 202234065#1 60761760#0 60761760#3 75642281 14811377 202157700#0 202157700#3 26202222#0"/>
    </vehicle>
    <vehicle id="24" depart="29.95" departLane="best" departSpeed="max" type="trafficMix" >
        <route edges="237921036 237921036.41 59617619 237921040 12695649 12695650#1 59617584#2 180801664"/>
    </vehicle>
    <vehicle id="25" depart="30.11" departLane="best" departSpeed="max" type="trafficMix" >
        <route edges="-1183449794 -84620353#2 -60761760#3 -60761760#2 -202234065#3 -202234065#0 -75642284#1 -30329931#2 -30329931#1 -202234068#2 -31971359#1 -31971359#0 -145057849#1 -145057849#0 -145057844 -202234343 -31971356 -202234344 59617619 237921040 12695649 12695650#1 59617584#2 180801664"/>
    </vehicle>
    <vehicle id="26" depart="31.91" departLane="best" departSpeed="max" type="trafficMix" >
        <route edges="-180801664 -59617584#4 -12695650#1 -12695650#0 -237921040 -59617619 12695647 31971356 202234343 145057844 145057844.12 145057849#1 31971359#0 31971359#1 202234068#0 30329931#0 30329931#2 75642284#1 202234065#0 202234065#1 60761760#0 60761760#3 75642281 14811377 202157700#0 202157700#3 26202222#0"/>
    </vehicle>
    <vehicle id="27" depart="32.54" departLane="best" departSpeed="max" type="trafficMix" >
        <route edges="-1182936853 12528053#0"/>
    </vehicle>
    <vehicle id="28" depart="32.59" departLane="best" departSpeed="max" type="trafficMix" >
        <route edges="-26202222#0 -26202222#0.41 -202157700#5 -202157700#2 -14811377 -84620353#2 -60761760#3 -60761760#2 -202234065#3 -202234065#0 -75642284#1 -30329931#2 -30329931#1 -202234068#2 -31971359#1 -31971359#0 -145057849#1 -145057849#0 -145057844 -202234343 -31971356 -202234344 -281402235#1 -281402232"/>
    </vehicle>
    <vehicle id="29" depart="35.68" departLane="best" departSpeed="max" type="trafficMix" >
        <route edges="-202157703 -202157700#5 -202157700#2 -14811377 -84620353#2 -60761760#3 -60761760#2 -202234065#3 -202234065#0 -75642284#1 -30329931#2 -30329931#1 -202234068#2 -31971359#1 -31971359#0 -145057849#1 -145057849#0 -145057844 -202234343 -31971356 -202234344 59617619 237921040 12695649 12695650#1 59617584#2 180801664"/>
    </vehicle>
    <vehicle id="30" depart="35.73" departLane="best" departSpeed="max" type="trafficMix" >
        <route edges="-180801664 -59617584#4 -12695650#1 -12695650#0 -237921040 -59617619 12695647 31971356 202234343 145057844 145057844.12 145057849#1 31971359#0 31971359#1 202234068#0 30329931#0 30329931#2 75642284#1 202234065#0 202234065#1 60761760#0 60761760#3 75642281 14811377 202157700#0 202157700#3 26202222#0"/>
    </vehicle>
    <vehicle id="31" depart="35.92" departLane="best" departSpeed="max" type="trafficMix" >
        <route edges="-26202222#0 -26202222#0.41 -202157700#5 -202157700#2 -14811377 -84620353#2 -60761760#3 -60761760#2 -202234065#3 -202234065#0 -75642284#1 -30329931#2 -30329931#1 -202234068#2 -31971359#1 -31971359#0 -145057849#1 -145057849#0 -145057844 -202234343 -31971356 -202234344 -237921036"/>
    </vehicle>
    <vehicle id="32" depart="36.47" departLane="best" departSpeed="max" type="trafficMix" >
        <route edges="-180801664 -59617584#4 -12695650#1 -12695650#0 -237921040 -59617619 12695647 31971356 202234343 145057844 145057844.12 145057849#1 -22293947"/>
    </vehicle>
    <vehicle id="33" depart="37.02" departLane="best" departSpeed="max" type="trafficMix" >
        <route edges="237921036 237921036.41 59617619 237921040 12695649 12695650#1 59617584#2 180801664"/>
    </vehicle>
    <vehicle id="34" depart="38.58" departLane="best" departSpeed="max" type="trafficMix" >
        <route edges="-180801664 -59617584#4 -12695650#1 -12695650#0 -237921040 -59617619 12695647 31971356 202234343 145057844 145057844.12 145057849#1 -22293947"/>
    </vehicle>
    <vehicle id="35" depart="38.92" departLane="best" departSpeed="max" type="trafficMix" >
        <route edges="-202157703 -202157700#5 -202157700#2 -14811377 -84620353#2 -60761760#3 -60761760#2 -202234065#3 -202234065#0 -75642284#1 -30329931#2 -30329931#1 -202234068#2 -31971359#1 -31971359#0 -145057849#1 -145057849#0 -145057844 -202234343 -31971356 -202234344 59617619 237921040 12695649 12695650#1 59617584#2 180801664"/>
    </vehicle>
    <vehicle id="36" depart="40.69" departLane="best" departSpeed="max" type="trafficMix" >
        <route edges="-203986456#0 -60761764#2 -202234065#3 -202234065#0 -75642284#1 -30329931#2 -30329931#1 -202234068#2 -31971359#1 -31971359#0 -145057849#1 -145057849#0 -145057844 -202234343 -31971356 -202234344 59617619 237921040 12695649 12695650#1 59617584#2 180801664"/>
    </vehicle>
    <vehicle id="37" depart="41.10" departLane="best" departSpeed="max" type="trafficMix" >
        <route edges="-180801664 -59617584#4 -12695650#1 -12695650#0 -237921040 -59617619 12695647 31971356 202234343 145057844 145057844.12 145057849#1 -22293947"/>
    </vehicle>
    <vehicle id="38" depart="42.14" departLane="best" departSpeed="max" type="trafficMix" >
        <route edges="-180801664 -59617584#4 -12695650#1 -12695650#0 -237921040 -59617619 12695647 31971356 202234343 145057844 145057844.12 145057849#1 31971359#0 31971359#1 202234068#0 30329931#0 30329931#2 75642284#1 202234065#0 202234065#1 60761760#0 60761760#3 75642281 14811377 202157700#0 202157700#3 26202222#0"/>
    </vehicle>
    <vehicle id="39" depart="43.57" departLane="best" departSpeed="max" type="trafficMix" >
        <route edges="237921036 237921036.41 59617619 237921040 12695649 12695650#1 59617584#2 180801664"/>
    </vehicle>
    <vehicle id="40" depart="43.76" departLane="best" departSpeed="max" type="trafficMix" >
        <route edges="-180801664 -59617584#4 -12695650#1 -12695650#0 -237921040 -59617619 -281402235#1 -281402232"/>
    </vehicle>
    <vehicle id="41" depart="44.65" departLane="best" departSpeed="max" type="trafficMix" >
        <route edges="-202157703 893429999#1"/>
    </vehicle>
    <vehicle id="42" depart="46.43" departLane="best" departSpeed="max" type="trafficMix" >
        <route edges="-202157703 893429999#1"/>
    </vehicle>
    <vehicle id="43" depart="47.62" departLane="best" departSpeed="max" type="trafficMix" >
        <route edges="-180801664 -59617584#4 -12695650#1 -12695650#0 -237921040 -59617619 -281402235#1 -281402232"/>
    </vehicle>
    <vehicle id="44" depart="49.26" departLane="best" departSpeed="max" type="trafficMix" >
        <route edges="-202157703 -202157700#5 -202157700#2 -14811377 -84620353#2 -60761760#3 -60761760#2 -202234065#3 -202234065#0 -75642284#1 -30329931#2 -30329931#1 -202234068#2 -31971359#1 -31971359#0 -145057849#1 -145057849#0 -145057844 -202234343 -31971356 -202234344 59617619 237921040 12695649 12695650#1 59617584#2 180801664"/>
    </vehicle>
    <vehicle id="45" depart="49.48" departLane="best" departSpeed="max" type="trafficMix" >
        <route edges="-202157703 -202157700#5 -202157700#2 -14811377 -84620353#2 -60761760#3 -60761760#2 -202234065#3 -202234065#0 -75642284#1 -30329931#2 -30329931#1 -202234068#2 -31971359#1 -31971359#0 -145057849#1 -145057849#0 -145057844 -202234343 -31971356 -202234344 59617619 237921040 12695649 12695650#1 59617584#2 180801664"/>
    </vehicle>
    <vehicle id="46" depart="49.90" departLane="best" departSpeed="max" type="trafficMix" >
        <route edges="-1183449794 -84620353#2 -60761760#3 -60761760#2 -202234065#3 -202234065#0 -75642284#1 -30329931#2 -30329931#1 -202234068#2 -31971359#1 -31971359#0 -145057849#1 -145057849#0 -145057844 -202234343 -31971356 -202234344 59617619 237921040 12695649 12695650#1 59617584#2 180801664"/>
    </vehicle>
    <vehicle id="47" depart="51.53" departLane="best" departSpeed="max" type="trafficMix" >
        <route edges="-202157703 893429999#1"/>
    </vehicle>
    <vehicle id="48" depart="51.77" departLane="best" departSpeed="max" type="trafficMix" >
        <route edges="-26202222#0 -26202222#0.41 -202157700#5 -202157700#2 -14811377 -84620353#2 -60761760#3 -60761760#2 -202234065#3 -202234065#0 -75642284#1 -30329931#2 -30329931#1 -202234068#2 -31971359#1 -31971359#0 -145057849#1 -145057849#0 -145057844 -202234343 -31971356 -202234344 59617619 237921040 12695649 12695650#1 59617584#2 180801664"/>
    </vehicle>
    <vehicle id="49" depart="52.90" departLane="best" departSpeed="max" type="trafficMix" >
        <route edges="-13831317#2 -13831317#2.34 14811377 202157700#0 202157700#3 12528053#0"/>
    </vehicle>
    <vehicle id="50" depart="54.40" departLane="best" departSpeed="max" type="trafficMix" >
        <route edges="-180801664 -59617584#4 -12695650#1 -12695650#0 -237921040 -59617619 12695647 31971356 202234343 145057844 145057844.12 145057849#1 -22293947"/>
    </vehicle>
    <vehicle id="51" depart="55.42" departLane="best" departSpeed="max" type="trafficMix" >
        <route edges="-202157703 893429999#1"/>
    </vehicle>
    <vehicle id="52" depart="58.32" departLane="best" departSpeed="max" type="trafficMix" >
        <route edges="-202157703 893429999#1"/>
    </vehicle>
    <vehicle id="53" depart="58.48" departLane="best" departSpeed="max" type="trafficMix" >
        <route edges="237921036 237921036.41 59617619 237921040 12695649 12695650#1 59617584#2 180801664"/>
    </vehicle>
    <vehicle id="54" depart="59.73" departLane="best" departSpeed="max" type="trafficMix" >
        <route edges="-180801664 -59617584#4 -12695650#1 -12695650#0 -237921040 -59617619 -237921036"/>
    </vehicle>
    <vehicle id="55" depart="61.01" departLane="best" departSpeed="max" type="trafficMix" >
        <route edges="-1183449794 -84620353#2 -60761760#3 -60761760#2 -202234065#3 -202234065#0 -75642284#1 -30329931#2 -30329931#1 -202234068#2 -31971359#1 -31971359#0 -145057849#1 -145057849#0 -145057844 -202234343 -31971356 -202234344 59617619 237921040 12695649 12695650#1 59617584#2 180801664"/>
    </vehicle>
    <vehicle id="56" depart="63.19" departLane="best" departSpeed="max" type="trafficMix" >
        <route edges="-1182936853 12528053#0"/>
    </vehicle>
    <vehicle id="57" depart="64.82" departLane="best" departSpeed="max" type="trafficMix" >
        <route edges="-202157703 -202157700#5 -202157700#2 -14811377 -84620353#2 -60761760#3 -60761760#2 -202234065#3 -202234065#0 -75642284#1 -30329931#2 -30329931#1 -202234068#2 -31971359#1 -31971359#0 -145057849#1 -145057849#0 -145057844 -202234343 -31971356 -202234344 59617619 237921040 12695649 12695650#1 59617584#2 180801664"/>
    </vehicle>
    <vehicle id="58" depart="65.25" departLane="best" departSpeed="max" type="trafficMix" >
        <route edges="237921036 237921036.41 59617619 237921040 12695649 12695650#1 59617584#2 180801664"/>
    </vehicle>
    <vehicle id="59" depart="68.82" departLane="best" departSpeed="max" type="trafficMix" >
        <route edges="-202157703 893429999#1"/>
    </vehicle>
    <vehicle id="60" depart="68.86" departLane="best" departSpeed="max" type="trafficMix" >
        <route edges="-202157703 893429999#1"/>
    </vehicle>
    <vehicle id="61" depart="68.92" departLane="best" departSpeed="max" type="trafficMix" >
        <route edges="-26202222#0 -26202222#0.41 -202157700#5 -202157700#2 -14811377 -84620353#2 -60761760#3 -60761760#2 -202234065#3 -202234065#0 -75642284#1 -30329931#2 -30329931#1 -202234068#2 -31971359#1 -31971359#0 -145057849#1 -145057849#0 -145057844 -202234343 -31971356 -202234344 -237921036"/>
    </vehicle>
    <vehicle id="62" depart="68.96" departLane="best" departSpeed="max" type="trafficMix" >
        <route edges="-1182936853 12528053#0"/>
    </vehicle>
    <vehicle id="63" depart="69.58" departLane="best" departSpeed="max" type="trafficMix" >
        <route edges="-26202222#0 -26202222#0.41 893429999#1"/>
    </vehicle>
    <vehicle id="64" depart="72.50" departLane="best" departSpeed="max" type="trafficMix" >
        <route edges="237921036 237921036.41 -281402235#1 -281402232"/>
    </vehicle>
    <vehicle id="65" depart="75.36" departLane="best" departSpeed="max" type="trafficMix" >
        <route edges="-203986456#0 -60761764#2 -202234065#3 -202234065#0 -75642284#1 -30329931#2 -30329931#1 -202234068#2 -31971359#1 -31971359#0 -145057849#1 -145057849#0 -145057844 -202234343 -31971356 -202234344 59617619 237921040 12695649 12695650#1 59617584#2 180801664"/>
    </vehicle>
    <vehicle id="66" depart="78.89" departLane="best" departSpeed="max" type="trafficMix" >
        <route edges="-1183449794 -84620353#2 -60761760#3 -60761760#2 -202234065#3 -202234065#0 -75642284#1 -30329931#2 -30329931#1 -202234068#2 -31971359#1 -31971359#0 -145057849#1 -145057849#0 -145057844 -202234343 -31971356 -202234344 59617619 237921040 12695649 12695650#1 59617584#2 180801664"/>
    </vehicle>
    <vehicle id="67" depart="79.44" departLane="best" departSpeed="max" type="trafficMix" >
        <route edges="-1182936853 12528053#0"/>
    </vehicle>
    <vehicle id="68" depart="80.73" departLane="best" departSpeed="max" type="trafficMix" >
        <route edges="-202157703 893429999#1"/>
    </vehicle>
    <vehicle id="69" depart="81.23" departLane="best" departSpeed="max" type="trafficMix" >
        <route edges="-26202222#0 -26202222#0.41 -202157700#5 -202157700#2 -14811377 -84620353#2 -60761760#3 -60761760#2 -202234065#3 -202234065#0 -75642284#1 -30329931#2 -30329931#1 -202234068#2 -31971359#1 -31971359#0 -145057849#1 -145057849#0 -145057844 -202234343 -31971356 -202234344 59617619 237921040 12695649 12695650#1 59617584#2 180801664"/>
    </vehicle>
    <vehicle id="70" depart="84.07" departLane="best" departSpeed="max" type="trafficMix" >
        <route edges="-180801664 -59617584#4 -12695650#1 -12695650#0 -237921040 -59617619 -237921036"/>
    </vehicle>
    <vehicle id="71" depart="84.94" departLane="best" departSpeed="max" type="trafficMix" >
        <route edges="-203986456#0 -60761764#2 -202234065#3 -202234065#0 -75642284#1 -30329931#2 -30329931#1 -202234068#2 -31971359#1 -31971359#0 -145057849#1 -145057849#0 -145057844 -202234343 -31971356 -202234344 59617619 237921040 12695649 12695650#1 59617584#2 180801664"/>
    </vehicle>
    <vehicle id="72" depart="85.35" departLane="best" departSpeed="max" type="trafficMix" >
        <route edges="-1182936853 12528053#0"/>
    </vehicle>
    <vehicle id="73" depart="86.21" departLane="best" departSpeed="max" type="trafficMix" >
        <route edges="-203986456#0 -60761764#2 -202234065#3 -202234065#0 -75642284#1 -30329931#2 -30329931#1 -202234068#2 -31971359#1 -31971359#0 -145057849#1 -145057849#0 -145057844 -202234343 -31971356 -202234344 59617619 237921040 12695649 12695650#1 59617584#2 180801664"/>
    </vehicle>
    <vehicle id="74" depart="86.42" departLane="best" departSpeed="max" type="trafficMix" >
        <route edges="-13831317#2 -13831317#2.34 -84620353#2 -60761760#3 -60761760#2 -202234065#3 -202234065#0 -75642284#1 -30329931#2 -30329931#1 -202234068#2 -31971359#1 -31971359#0 -145057849#1 -145057849#0 -145057844 -202234343 -31971356 -202234344 59617619 237921040 12695649 12695650#1 59617584#2 180801664"/>
    </vehicle>
    <vehicle id="75" depart="89.90" departLane="best" departSpeed="max" type="trafficMix" >
        <route edges="-180801664 -59617584#4 -12695650#1 -12695650#0 -237921040 -59617619 -281402235#1 -281402232"/>
    </vehicle>
    <vehicle id="76" depart="90.70" departLane="best" departSpeed="max" type="trafficMix" >
        <route edges="-180801664 -59617584#4 -12695650#1 -12695650#0 -237921040 -59617619 12695647 31971356 202234343 145057844 145057844.12 145057849#1 -22293947"/>
    </vehicle>
    <vehicle id="77" depart="90.72" departLane="best" departSpeed="max" type="trafficMix" >
        <route edges="-180801664 -59617584#4 -12695650#1 -12695650#0 -237921040 -59617619 -237921036"/>
    </vehicle>
    <vehicle id="78" depart="91.25" departLane="best" departSpeed="max" type="trafficMix" >
        <route edges="-180801664 -59617584#4 -12695650#1 -12695650#0 -237921040 -59617619 12695647 31971356 202234343 145057844 145057844.12 145057849#1 -22293947"/>
    </vehicle>
    <vehicle id="79" depart="91.61" departLane="best" departSpeed="max" type="trafficMix" >
        <route edges="-13831317#2 -13831317#2.34 14811377 202157700#0 202157700#3 12528053#0"/>
    </vehicle>
    <vehicle id="80" depart="92.48" departLane="best" departSpeed="max" type="trafficMix" >
        <route edges="-180801664 -59617584#4 -12695650#1 -12695650#0 -237921040 -59617619 -237921036"/>
    </vehicle>
    <vehicle id="81" depart="92.77" departLane="best" departSpeed="max" type="trafficMix" >
        <route edges="-180801664 -59617584#4 -12695650#1 -12695650#0 -237921040 -59617619 12695647 31971356 202234343 145057844 145057844.12 145057849#1 -22293947"/>
    </vehicle>
    <vehicle id="82" depart="99.13" departLane="best" departSpeed="max" type="trafficMix" >
        <route edges="-26202222#0 -26202222#0.41 -202157700#5 -202157700#2 -14811377 -84620353#2 -60761760#3 -60761760#2 -202234065#3 -202234065#0 -75642284#1 -30329931#2 -30329931#1 -202234068#2 -31971359#1 -31971359#0 -145057849#1 -145057849#0 -145057844 -202234343 -31971356 -202234344 -281402235#1 -281402232"/>
    </vehicle>
    <vehicle id="83" depart="100.27" departLane="best" departSpeed="max" type="trafficMix" >
        <route edges="-180801664 -59617584#4 -12695650#1 -12695650#0 -237921040 -59617619 -237921036"/>
    </vehicle>
    <vehicle id="84" depart="103.15" departLane="best" departSpeed="max" type="trafficMix" >
        <route edges="-203986456#0 -60761764#2 -202234065#3 -202234065#0 -75642284#1 -30329931#2 -30329931#1 -202234068#2 -31971359#1 -31971359#0 -145057849#1 -145057849#0 -145057844 -202234343 -31971356 -202234344 59617619 237921040 12695649 12695650#1 59617584#2 180801664"/>
    </vehicle>
    <vehicle id="85" depart="105.01" departLane="best" departSpeed="max" type="trafficMix" >
        <route edges="237921036 237921036.41 -281402235#1 -281402232"/>
    </vehicle>
    <vehicle id="86" depart="108.09" departLane="best" departSpeed="max" type="trafficMix" >
        <route edges="-26202222#0 -26202222#0.41 -202157700#5 -202157700#2 -14811377 -84620353#2 -60761760#3 -60761760#2 -202234065#3 -202234065#0 -75642284#1 -30329931#2 -30329931#1 -202234068#2 -31971359#1 -31971359#0 -145057849#1 -145057849#0 -145057844 -202234343 -31971356 -202234344 -237921036"/>
    </vehicle>
    <vehicle id="87" depart="108.37" departLane="best" departSpeed="max" type="trafficMix" >
        <route edges="-203986456#0 -60761764#2 -202234065#3 -202234065#0 -75642284#1 -30329931#2 -30329931#1 -202234068#2 -31971359#1 -31971359#0 -145057849#1 -145057849#0 -145057844 -202234343 -31971356 -202234344 59617619 237921040 12695649 12695650#1 59617584#2 180801664"/>
    </vehicle>
    <vehicle id="88" depart="109.67" departLane="best" departSpeed="max" type="trafficMix" >
        <route edges="237921036 237921036.41 12695647 31971356 202234343 145057844 145057844.12 145057849#1 31971359#0 31971359#1 202234068#0 30329931#0 30329931#2 75642284#1 202234065#0 202234065#1 60761760#0 60761760#3 75642281 14811377 202157700#0 202157700#3 12528053#0"/>
    </vehicle>
    <vehicle id="89" depart="111.44" departLane="best" departSpeed="max" type="trafficMix" >
        <route edges="-180801664 -59617584#4 -12695650#1 -12695650#0 -237921040 -59617619 12695647 31971356 202234343 145057844 145057844.12 145057849#1 -22293947"/>
    </vehicle>
    <vehicle id="90" depart="112.14" departLane="best" departSpeed="max" type="trafficMix" >
        <route edges="-202157703 893429999#1"/>
    </vehicle>
    <vehicle id="91" depart="114.28" departLane="best" departSpeed="max" type="trafficMix" >
        <route edges="-180801664 -59617584#4 -12695650#1 -12695650#0 -237921040 -59617619 12695647 31971356 202234343 145057844 145057844.12 145057849#1 -22293947"/>
    </vehicle>
    <vehicle id="92" depart="116.80" departLane="best" departSpeed="max" type="trafficMix" >
        <route edges="-180801664 -59617584#4 -12695650#1 -12695650#0 -237921040 -59617619 12695647 31971356 202234343 145057844 145057844.12 145057849#1 -22293947"/>
    </vehicle>
    <vehicle id="93" depart="117.57" departLane="best" departSpeed="max" type="trafficMix" >
        <route edges="-202157703 893429999#1"/>
    </vehicle>
    <vehicle id="94" depart="119.48" departLane="best" departSpeed="max" type="trafficMix" >
        <route edges="-25563346#2 13831317#0"/>
    </vehicle>
    <vehicle id="95" depart="121.24" departLane="best" departSpeed="max" type="trafficMix" >
        <route edges="-202157703 893429999#1"/>
    </vehicle>
    <vehicle id="96" depart="124.81" departLane="best" departSpeed="max" type="trafficMix" >
        <route edges="-180801664 -59617584#4 -12695650#1 -12695650#0 -237921040 -59617619 -281402235#1 -281402232"/>
    </vehicle>
    <vehicle id="97" depart="124.82" departLane="best" departSpeed="max" type="trafficMix" >
        <route edges="-1183449794 -84620353#2 -60761760#3 -60761760#2 -202234065#3 -202234065#0 -75642284#1 -30329931#2 -30329931#1 -202234068#2 -31971359#1 -31971359#0 -145057849#1 -145057849#0 -145057844 -202234343 -31971356 -202234344 59617619 237921040 12695649 12695650#1 59617584#2 180801664"/>
    </vehicle>
    <vehicle id="98" depart="125.68" departLane="best" departSpeed="max" type="trafficMix" >
        <route edges="237921036 237921036.41 59617619 237921040 12695649 12695650#1 59617584#2 180801664"/>
    </vehicle>
    <vehicle id="99" depart="128.12" departLane="best" departSpeed="max" type="trafficMix" >
        <route edges="-202157703 -202157700#5 -202157700#2 -14811377 -84620353#2 -60761760#3 -60761760#2 -202234065#3 -202234065#0 -75642284#1 -30329931#2 -30329931#1 -202234068#2 -31971359#1 -31971359#0 -145057849#1 -145057849#0 -145057844 -202234343 -31971356 -202234344 59617619 237921040 12695649 12695650#1 59617584#2 180801664"/>
    </vehicle>
    <vehicle id="100" depart="129.67" departLane="best" departSpeed="max" type="trafficMix" >
        <route edges="-180801664 -59617584#4 -12695650#1 -12695650#0 -237921040 -59617619 -281402235#1 -281402232"/>
    </vehicle>
    <vehicle id="101" depart="132.20" departLane="best" departSpeed="max" type="trafficMix" >
        <route edges="-1183449794 -84620353#2 -60761760#3 -60761760#2 -202234065#3 -202234065#0 -75642284#1 -30329931#2 -30329931#1 -202234068#2 -31971359#1 -31971359#0 -145057849#1 -145057849#0 -145057844 -202234343 -31971356 -202234344 59617619 237921040 12695649 12695650#1 59617584#2 180801664"/>
    </vehicle>
    <vehicle id="102" depart="135.26" departLane="best" departSpeed="max" type="trafficMix" >
        <route edges="-180801664 -59617584#4 -12695650#1 -12695650#0 -237921040 -59617619 -281402235#1 -281402232"/>
    </vehicle>